<?xml version="1.0" encoding="UTF-8"?>

<!-- generated on 2021-10-24 16:55:27 by Eclipse SUMO jtrrouter Version 1.10.0
<configuration xmlns:xsi="http://www.w3.org/2001/XMLSchema-instance" xsi:noNamespaceSchemaLocation="http://sumo.dlr.de/xsd/jtrrouterConfiguration.xsd">

    <input>
        <net-file value="grid.net.xml"/>
        <route-files value="flows.xml"/>
    </input>

    <output>
        <output-file value="grid.rou.xml"/>
    </output>

    <processing>
        <no-internal-links value="true"/>
        <accept-all-destinations value="true"/>
    </processing>

    <time>
        <begin value="0"/>
        <end value="10000"/>
    </time>

</configuration>
-->

<routes xmlns:xsi="http://www.w3.org/2001/XMLSchema-instance" xsi:noNamespaceSchemaLocation="http://sumo.dlr.de/xsd/routes_file.xsd">
    <vehicle id="0.0" depart="0.00">
        <route edges="B2B1 B2B1.101.00 B1B0 B1B0.101.00 B0A0 A0A1 A0A1.101.00"/>
    </vehicle>
    <vehicle id="1.0" depart="0.00">
        <route edges="A2B2.101.00 B2C2 C2C1 C2C1.101.00 C1C0 C0B0 C0B0.101.00 B0B1 B0B1.101.00 B1B2 B1B2.101.00 B2A2 A2A1"/>
    </vehicle>
    <vehicle id="10.0" depart="0.00">
        <route edges="C1B1 C1B1.101.00 B1A1 B1A1.101.00 A1A2 A2B2 A2B2.101.00 B2C2"/>
    </vehicle>
    <vehicle id="11.0" depart="0.00">
        <route edges="B0B1 B0B1.101.00 B1A1 B1A1.101.00 A1A2 A2B2 A2B2.101.00 B2B1 B2B1.101.00 B1B0 B1B0.101.00 B0A0 A0A1 A0A1.101.00 A1B1"/>
    </vehicle>
    <vehicle id="12.0" depart="0.00">
        <route edges="C2C1 C2C1.101.00 C1B1 C1B1.101.00 B1B2 B1B2.101.00 B2C2"/>
    </vehicle>
    <vehicle id="13.0" depart="0.00">
        <route edges="A0B0.101.00"/>
    </vehicle>
    <vehicle id="14.0" depart="0.00">
        <route edges="C1B1.101.00 B1A1 B1A1.101.00 A1A0 A0B0 A0B0.101.00 B0B1 B0B1.101.00 B1B2 B1B2.101.00 B2A2"/>
    </vehicle>
    <vehicle id="15.0" depart="0.00">
        <route edges="C1B1 C1B1.101.00 B1A1 B1A1.101.00 A1A2 A2B2 A2B2.101.00 B2C2 C2C1 C2C1.101.00 C1C0 C0B0 C0B0.101.00"/>
    </vehicle>
    <vehicle id="16.0" depart="0.00">
        <route edges="B1B2.101.00 B2C2 C2C1"/>
    </vehicle>
    <vehicle id="17.0" depart="0.00">
        <route edges="B0C0 C0C1 C0C1.101.00 C1C2 C2B2 C2B2.101.00 B2A2 A2A1 A2A1.101.00 A1A0 A0B0 A0B0.101.00 B0B1 B0B1.101.00 B1B2 B1B2.101.00 B2C2 C2C1 C2C1.101.00 C1C0 C0B0 C0B0.101.00 B0A0 A0A1 A0A1.101.00 A1B1 A1B1.101.00 B1C1"/>
    </vehicle>
    <vehicle id="18.0" depart="0.00">
        <route edges="C1B1.101.00 B1A1 B1A1.101.00 A1A2 A2B2 A2B2.101.00 B2B1 B2B1.101.00 B1B0 B1B0.101.00 B0A0 A0A1 A0A1.101.00 A1B1 A1B1.101.00 B1C1 B1C1.101.00 C1C2 C2B2 C2B2.101.00 B2A2"/>
    </vehicle>
    <vehicle id="19.0" depart="0.00">
        <route edges="C1C0 C0B0 C0B0.101.00 B0A0 A0A1 A0A1.101.00 A1B1 A1B1.101.00 B1C1 B1C1.101.00"/>
    </vehicle>
    <vehicle id="2.0" depart="0.00">
        <route edges="C0B0.101.00 B0A0 A0A1 A0A1.101.00 A1B1 A1B1.101.00 B1C1 B1C1.101.00 C1C0 C0B0"/>
    </vehicle>
    <vehicle id="20.0" depart="0.00">
        <route edges="C0B0 C0B0.101.00 B0A0 A0A1 A0A1.101.00"/>
    </vehicle>
    <vehicle id="21.0" depart="0.00">
        <route edges="A2A1.101.00 A1B1 A1B1.101.00 B1B2 B1B2.101.00 B2C2 C2C1 C2C1.101.00 C1C0 C0B0 C0B0.101.00 B0B1 B0B1.101.00 B1A1 B1A1.101.00 A1A2 A2B2 A2B2.101.00"/>
    </vehicle>
    <vehicle id="22.0" depart="0.00">
        <route edges="A0B0.101.00 B0B1 B0B1.101.00 B1B2 B1B2.101.00 B2C2 C2C1 C2C1.101.00 C1C0 C0B0 C0B0.101.00 B0A0 A0A1 A0A1.101.00 A1B1 A1B1.101.00 B1B0 B1B0.101.00 B0C0 C0C1 C0C1.101.00 C1B1 C1B1.101.00 B1A1 B1A1.101.00 A1A2 A2B2 A2B2.101.00 B2B1 B2B1.101.00 B1C1 B1C1.101.00 C1C2 C2B2 C2B2.101.00 B2A2 A2A1 A2A1.101.00"/>
    </vehicle>
    <vehicle id="23.0" depart="0.00">
        <route edges="A1A0 A0B0 A0B0.101.00 B0C0 C0C1 C0C1.101.00 C1B1 C1B1.101.00 B1A1 B1A1.101.00 A1A2 A2B2 A2B2.101.00"/>
    </vehicle>
    <vehicle id="24.0" depart="0.00">
        <route edges="B2B1 B2B1.101.00 B1B0 B1B0.101.00 B0A0 A0A1 A0A1.101.00 A1A2 A2B2 A2B2.101.00 B2C2 C2C1 C2C1.101.00 C1B1 C1B1.101.00 B1A1 B1A1.101.00 A1A0 A0B0 A0B0.101.00 B0C0 C0C1 C0C1.101.00 C1C2 C2B2 C2B2.101.00 B2A2 A2A1 A2A1.101.00 A1B1 A1B1.101.00 B1C1 B1C1.101.00 C1C0 C0B0 C0B0.101.00 B0B1 B0B1.101.00"/>
    </vehicle>
    <vehicle id="25.0" depart="0.00">
        <route edges="B0B1.101.00 B1C1 B1C1.101.00 C1C0 C0B0 C0B0.101.00 B0A0 A0A1 A0A1.101.00 A1B1 A1B1.101.00 B1B2 B1B2.101.00 B2A2 A2A1"/>
    </vehicle>
    <vehicle id="26.0" depart="0.00">
        <route edges="A2B2 A2B2.101.00 B2C2 C2C1 C2C1.101.00 C1B1 C1B1.101.00 B1B0 B1B0.101.00 B0A0 A0A1 A0A1.101.00 A1A2"/>
    </vehicle>
    <vehicle id="27.0" depart="0.00">
        <route edges="B2B1 B2B1.101.00 B1C1 B1C1.101.00 C1C2 C2B2 C2B2.101.00 B2A2"/>
    </vehicle>
    <vehicle id="28.0" depart="0.00">
        <route edges="A1B1 A1B1.101.00 B1C1 B1C1.101.00 C1C2 C2B2 C2B2.101.00 B2A2 A2A1 A2A1.101.00 A1A0 A0B0 A0B0.101.00 B0B1 B0B1.101.00 B1A1 B1A1.101.00 A1A2 A2B2 A2B2.101.00 B2B1 B2B1.101.00 B1B0 B1B0.101.00 B0C0 C0C1 C0C1.101.00 C1B1 C1B1.101.00 B1B2 B1B2.101.00 B2C2 C2C1 C2C1.101.00 C1C0 C0B0 C0B0.101.00"/>
    </vehicle>
    <vehicle id="29.0" depart="0.00">
        <route edges="A1B1 A1B1.101.00 B1B0 B1B0.101.00 B0C0"/>
    </vehicle>
    <vehicle id="3.0" depart="0.00">
        <route edges="C1C2 C2B2 C2B2.101.00 B2A2 A2A1 A2A1.101.00 A1A0 A0B0 A0B0.101.00"/>
    </vehicle>
    <vehicle id="30.0" depart="0.00">
        <route edges="C2C1.101.00 C1C0 C0B0 C0B0.101.00 B0A0 A0A1 A0A1.101.00 A1A2 A2B2 A2B2.101.00 B2B1"/>
    </vehicle>
    <vehicle id="31.0" depart="0.00">
        <route edges="B1C1 B1C1.101.00 C1C0 C0B0 C0B0.101.00 B0B1 B0B1.101.00 B1A1 B1A1.101.00 A1A0 A0B0 A0B0.101.00 B0C0 C0C1 C0C1.101.00 C1C2 C2B2 C2B2.101.00 B2A2 A2A1 A2A1.101.00 A1B1 A1B1.101.00 B1B2 B1B2.101.00 B2C2"/>
    </vehicle>
    <vehicle id="32.0" depart="0.00">
        <route edges="C1B1.101.00 B1B0 B1B0.101.00 B0A0 A0A1 A0A1.101.00 A1B1 A1B1.101.00 B1B2 B1B2.101.00 B2A2 A2A1 A2A1.101.00 A1A0 A0B0 A0B0.101.00 B0B1 B0B1.101.00 B1C1 B1C1.101.00 C1C2 C2B2 C2B2.101.00 B2B1 B2B1.101.00 B1A1 B1A1.101.00 A1A2 A2B2 A2B2.101.00 B2C2 C2C1 C2C1.101.00 C1B1"/>
    </vehicle>
    <vehicle id="33.0" depart="0.00">
        <route edges="A2A1.101.00 A1A0 A0B0 A0B0.101.00 B0B1 B0B1.101.00 B1C1 B1C1.101.00 C1C2 C2B2 C2B2.101.00 B2B1 B2B1.101.00 B1A1 B1A1.101.00 A1A2 A2B2 A2B2.101.00 B2C2 C2C1 C2C1.101.00 C1C0 C0B0 C0B0.101.00 B0A0 A0A1 A0A1.101.00"/>
    </vehicle>
    <vehicle id="34.0" depart="0.00">
        <route edges="B0A0 A0A1 A0A1.101.00 A1A2 A2B2"/>
    </vehicle>
    <vehicle id="35.0" depart="0.00">
        <route edges="A2A1 A2A1.101.00 A1B1 A1B1.101.00 B1B0 B1B0.101.00 B0A0 A0A1 A0A1.101.00 A1A2 A2B2 A2B2.101.00 B2B1 B2B1.101.00 B1A1 B1A1.101.00 A1A0 A0B0 A0B0.101.00 B0C0 C0C1 C0C1.101.00 C1B1 C1B1.101.00 B1B2 B1B2.101.00 B2C2 C2C1 C2C1.101.00 C1C0 C0B0 C0B0.101.00 B0B1 B0B1.101.00 B1C1 B1C1.101.00 C1C2 C2B2 C2B2.101.00"/>
    </vehicle>
    <vehicle id="36.0" depart="0.00">
        <route edges="C1C2 C2B2 C2B2.101.00 B2B1 B2B1.101.00 B1A1 B1A1.101.00 A1A0 A0B0 A0B0.101.00 B0B1 B0B1.101.00 B1B2 B1B2.101.00 B2A2 A2A1 A2A1.101.00 A1B1 A1B1.101.00 B1C1 B1C1.101.00 C1C0 C0B0 C0B0.101.00 B0A0"/>
    </vehicle>
    <vehicle id="37.0" depart="0.00">
        <route edges="B2B1.101.00 B1B0 B1B0.101.00 B0C0"/>
    </vehicle>
    <vehicle id="38.0" depart="0.00">
        <route edges="C2B2 C2B2.101.00 B2B1 B2B1.101.00 B1C1 B1C1.101.00 C1C0 C0B0 C0B0.101.00 B0A0 A0A1 A0A1.101.00 A1B1 A1B1.101.00 B1B2 B1B2.101.00 B2A2 A2A1 A2A1.101.00 A1A0 A0B0 A0B0.101.00 B0B1 B0B1.101.00 B1A1 B1A1.101.00 A1A2 A2B2 A2B2.101.00 B2C2 C2C1 C2C1.101.00 C1B1 C1B1.101.00 B1B0"/>
    </vehicle>
    <vehicle id="39.0" depart="0.00">
        <route edges="A2B2 A2B2.101.00 B2C2 C2C1 C2C1.101.00 C1B1 C1B1.101.00 B1B2 B1B2.101.00 B2A2 A2A1 A2A1.101.00"/>
    </vehicle>
    <vehicle id="4.0" depart="0.00">
        <route edges="B1A1 B1A1.101.00 A1A2 A2B2 A2B2.101.00 B2B1 B2B1.101.00 B1B0 B1B0.101.00 B0C0 C0C1 C0C1.101.00 C1B1 C1B1.101.00 B1B2 B1B2.101.00 B2A2 A2A1 A2A1.101.00 A1B1 A1B1.101.00 B1C1 B1C1.101.00 C1C2 C2B2 C2B2.101.00"/>
    </vehicle>
    <vehicle id="40.0" depart="0.00">
        <route edges="B1C1 B1C1.101.00 C1C0 C0B0 C0B0.101.00 B0B1 B0B1.101.00 B1B2 B1B2.101.00 B2A2 A2A1 A2A1.101.00 A1B1 A1B1.101.00 B1B0 B1B0.101.00 B0A0 A0A1 A0A1.101.00 A1A2 A2B2"/>
    </vehicle>
    <vehicle id="41.0" depart="0.00">
        <route edges="B1C1.101.00 C1C2"/>
    </vehicle>
    <vehicle id="42.0" depart="0.00">
        <route edges="B0C0 C0C1 C0C1.101.00 C1C2 C2B2 C2B2.101.00 B2B1 B2B1.101.00 B1C1 B1C1.101.00 C1C0 C0B0 C0B0.101.00 B0A0 A0A1 A0A1.101.00 A1A2 A2B2 A2B2.101.00 B2C2 C2C1 C2C1.101.00 C1B1 C1B1.101.00 B1B0 B1B0.101.00"/>
    </vehicle>
    <vehicle id="43.0" depart="0.00">
        <route edges="C2C1.101.00 C1B1 C1B1.101.00 B1A1 B1A1.101.00 A1A0 A0B0 A0B0.101.00 B0C0 C0C1 C0C1.101.00 C1C2 C2B2 C2B2.101.00 B2A2 A2A1 A2A1.101.00 A1B1 A1B1.101.00 B1B2"/>
    </vehicle>
    <vehicle id="44.0" depart="0.00">
        <route edges="A0B0.101.00 B0B1 B0B1.101.00 B1B2 B1B2.101.00 B2A2 A2A1 A2A1.101.00 A1B1 A1B1.101.00 B1B0 B1B0.101.00 B0C0 C0C1 C0C1.101.00 C1B1 C1B1.101.00 B1A1 B1A1.101.00 A1A2 A2B2 A2B2.101.00 B2B1 B2B1.101.00 B1C1 B1C1.101.00 C1C0 C0B0 C0B0.101.00 B0A0 A0A1 A0A1.101.00"/>
    </vehicle>
    <vehicle id="45.0" depart="0.00">
        <route edges="A1A0 A0B0 A0B0.101.00 B0C0 C0C1 C0C1.101.00 C1C2 C2B2 C2B2.101.00 B2A2 A2A1 A2A1.101.00 A1B1 A1B1.101.00 B1B2 B1B2.101.00 B2C2 C2C1 C2C1.101.00 C1C0 C0B0 C0B0.101.00 B0B1 B0B1.101.00 B1A1 B1A1.101.00 A1A2 A2B2 A2B2.101.00 B2B1"/>
    </vehicle>
    <vehicle id="46.0" depart="0.00">
        <route edges="C0C1.101.00 C1B1 C1B1.101.00 B1A1"/>
    </vehicle>
    <vehicle id="47.0" depart="0.00">
        <route edges="A0B0 A0B0.101.00 B0C0"/>
    </vehicle>
    <vehicle id="48.0" depart="0.00">
        <route edges="C2C1.101.00 C1B1 C1B1.101.00 B1B0 B1B0.101.00 B0C0 C0C1 C0C1.101.00 C1C2 C2B2 C2B2.101.00 B2A2 A2A1 A2A1.101.00 A1B1 A1B1.101.00 B1C1 B1C1.101.00 C1C0 C0B0 C0B0.101.00 B0B1 B0B1.101.00 B1B2 B1B2.101.00"/>
    </vehicle>
    <vehicle id="49.0" depart="0.00">
        <route edges="C2C1 C2C1.101.00 C1C0"/>
    </vehicle>
    <vehicle id="5.0" depart="0.00">
        <route edges="A2A1 A2A1.101.00 A1B1 A1B1.101.00 B1C1 B1C1.101.00 C1C2 C2B2 C2B2.101.00 B2B1 B2B1.101.00 B1B0 B1B0.101.00 B0A0 A0A1 A0A1.101.00 A1A2 A2B2 A2B2.101.00 B2C2 C2C1 C2C1.101.00 C1B1 C1B1.101.00 B1A1 B1A1.101.00 A1A0 A0B0 A0B0.101.00 B0B1 B0B1.101.00 B1B2"/>
    </vehicle>
    <vehicle id="6.0" depart="0.00">
        <route edges="A0A1.101.00 A1B1 A1B1.101.00"/>
    </vehicle>
    <vehicle id="7.0" depart="0.00">
        <route edges="B2B1 B2B1.101.00 B1B0 B1B0.101.00 B0A0 A0A1 A0A1.101.00 A1A2 A2B2 A2B2.101.00 B2C2 C2C1 C2C1.101.00 C1C0 C0B0 C0B0.101.00 B0B1 B0B1.101.00 B1B2 B1B2.101.00"/>
    </vehicle>
    <vehicle id="8.0" depart="0.00">
        <route edges="A2A1 A2A1.101.00 A1B1 A1B1.101.00 B1C1 B1C1.101.00"/>
    </vehicle>
    <vehicle id="9.0" depart="0.00">
        <route edges="C1B1 C1B1.101.00 B1B0 B1B0.101.00 B0C0 C0C1 C0C1.101.00 C1C2 C2B2 C2B2.101.00 B2B1 B2B1.101.00 B1C1 B1C1.101.00 C1C0 C0B0 C0B0.101.00 B0B1 B0B1.101.00 B1B2 B1B2.101.00 B2A2 A2A1 A2A1.101.00 A1A0 A0B0 A0B0.101.00"/>
    </vehicle>
</routes>
