<?xml version="1.0" encoding="UTF-8"?>

<!-- generated on 2021-11-05 14:51:39 by Eclipse SUMO netgenerate Version 1.10.0
<configuration xmlns:xsi="http://www.w3.org/2001/XMLSchema-instance" xsi:noNamespaceSchemaLocation="http://sumo.dlr.de/xsd/netgenerateConfiguration.xsd">

    <grid_network>
        <grid value="true"/>
        <grid.number value="5"/>
        <grid.length value="200"/>
    </grid_network>

    <output>
        <output-file value="grid.net.xml"/>
    </output>

    <processing>
        <turn-lanes value="2"/>
        <turn-lanes.length value="99"/>
    </processing>

    <building_defaults>
        <default.lanenumber value="1"/>
        <default-junction-type value="traffic_light"/>
    </building_defaults>

    <tls_building>
        <tls.cycle.time value="90"/>
    </tls_building>

    <junctions>
        <no-turnarounds value="true"/>
    </junctions>

</configuration>
-->

<net version="1.9" junctionCornerDetail="5" limitTurnSpeed="5.50" xmlns:xsi="http://www.w3.org/2001/XMLSchema-instance" xsi:noNamespaceSchemaLocation="http://sumo.dlr.de/xsd/net_file.xsd">

    <location netOffset="3.20,3.20" convBoundary="0.00,0.00,806.40,806.40" origBoundary="0.00,0.00,800.00,800.00" projParameter="!"/>

    <edge id=":A0_0" function="internal">
        <lane id=":A0_0_0" index="0" speed="8.96" length="18.06" shape="-1.60,9.60 -0.90,4.70 1.20,1.20 4.70,-0.90 9.60,-1.60"/>
    </edge>
    <edge id=":A0_1" function="internal">
        <lane id=":A0_1_0" index="0" speed="3.90" length="2.58" shape="9.60,8.00 8.90,8.10 8.40,8.40 8.10,8.90 8.00,9.60"/>
    </edge>
    <edge id=":A0A1.101.00_0" function="internal">
        <lane id=":A0A1.101.00_0_0" index="0" speed="13.89" length="9.22" shape="8.00,100.20 8.00,108.20"/>
        <lane id=":A0A1.101.00_0_1" index="1" speed="13.89" length="9.22" shape="8.00,100.20 7.50,102.66 6.40,104.20 5.30,105.74 4.80,108.20"/>
        <lane id=":A0A1.101.00_0_2" index="2" speed="13.89" length="9.22" shape="8.00,100.20 7.00,102.84 4.80,104.15 2.60,105.49 1.60,108.20"/>
    </edge>
    <edge id=":A0B0.101.00_0" function="internal">
        <lane id=":A0B0.101.00_0_0" index="0" speed="13.89" length="9.22" shape="100.20,-1.60 108.20,-1.60"/>
        <lane id=":A0B0.101.00_0_1" index="1" speed="13.89" length="9.22" shape="100.20,-1.60 102.66,-1.10 104.20,-0.00 105.74,1.10 108.20,1.60"/>
        <lane id=":A0B0.101.00_0_2" index="2" speed="13.89" length="9.22" shape="100.20,-1.60 102.84,-0.60 104.15,1.60 105.49,3.80 108.20,4.80"/>
    </edge>
    <edge id=":A1_0" function="internal">
        <lane id=":A1_0_0" index="0" speed="13.89" length="20.80" shape="-1.60,213.60 -1.60,192.80"/>
    </edge>
    <edge id=":A1_1" function="internal">
        <lane id=":A1_1_0" index="0" speed="9.32" length="6.12" shape="4.80,213.60 5.30,207.50"/>
    </edge>
    <edge id=":A1_6" function="internal">
        <lane id=":A1_6_0" index="0" speed="9.32" length="13.51" shape="5.30,207.50 5.35,206.95 7.00,202.20 9.75,199.35 13.60,198.40"/>
    </edge>
    <edge id=":A1_2" function="internal">
        <lane id=":A1_2_0" index="0" speed="6.51" length="9.03" shape="13.60,208.00 11.15,208.35 9.40,209.40 8.35,211.15 8.00,213.60"/>
    </edge>
    <edge id=":A1_3" function="internal">
        <lane id=":A1_3_0" index="0" speed="9.32" length="19.63" shape="13.60,201.60 6.95,201.05 2.20,199.40 -0.65,196.65 -1.60,192.80"/>
    </edge>
    <edge id=":A1_4" function="internal">
        <lane id=":A1_4_0" index="0" speed="6.51" length="9.03" shape="8.00,192.80 8.35,195.25 9.40,197.00 11.15,198.05 13.60,198.40"/>
    </edge>
    <edge id=":A1_5" function="internal">
        <lane id=":A1_5_0" index="0" speed="13.89" length="21.09" shape="4.80,192.80 5.30,199.79 6.40,205.27 7.50,209.72 8.00,213.60"/>
    </edge>
    <edge id=":A1A2.101.00_0" function="internal">
        <lane id=":A1A2.101.00_0_0" index="0" speed="13.89" length="9.22" shape="8.00,300.20 8.00,308.20"/>
        <lane id=":A1A2.101.00_0_1" index="1" speed="13.89" length="9.22" shape="8.00,300.20 7.50,302.66 6.40,304.20 5.30,305.74 4.80,308.20"/>
        <lane id=":A1A2.101.00_0_2" index="2" speed="13.89" length="9.22" shape="8.00,300.20 7.00,302.84 4.80,304.15 2.60,305.49 1.60,308.20"/>
    </edge>
    <edge id=":A1B1.101.00_0" function="internal">
        <lane id=":A1B1.101.00_0_0" index="0" speed="13.89" length="9.22" shape="100.20,198.40 108.20,198.40"/>
        <lane id=":A1B1.101.00_0_1" index="1" speed="13.89" length="9.22" shape="100.20,198.40 102.66,198.90 104.20,200.00 105.74,201.10 108.20,201.60"/>
        <lane id=":A1B1.101.00_0_2" index="2" speed="13.89" length="9.22" shape="100.20,198.40 102.84,199.40 104.15,201.60 105.49,203.80 108.20,204.80"/>
    </edge>
    <edge id=":A2_0" function="internal">
        <lane id=":A2_0_0" index="0" speed="13.89" length="20.80" shape="-1.60,413.60 -1.60,392.80"/>
    </edge>
    <edge id=":A2_1" function="internal">
        <lane id=":A2_1_0" index="0" speed="9.32" length="6.12" shape="4.80,413.60 5.30,407.50"/>
    </edge>
    <edge id=":A2_6" function="internal">
        <lane id=":A2_6_0" index="0" speed="9.32" length="13.51" shape="5.30,407.50 5.35,406.95 7.00,402.20 9.75,399.35 13.60,398.40"/>
    </edge>
    <edge id=":A2_2" function="internal">
        <lane id=":A2_2_0" index="0" speed="6.51" length="9.03" shape="13.60,408.00 11.15,408.35 9.40,409.40 8.35,411.15 8.00,413.60"/>
    </edge>
    <edge id=":A2_3" function="internal">
        <lane id=":A2_3_0" index="0" speed="9.32" length="19.63" shape="13.60,401.60 6.95,401.05 2.20,399.40 -0.65,396.65 -1.60,392.80"/>
    </edge>
    <edge id=":A2_4" function="internal">
        <lane id=":A2_4_0" index="0" speed="6.51" length="9.03" shape="8.00,392.80 8.35,395.25 9.40,397.00 11.15,398.05 13.60,398.40"/>
    </edge>
    <edge id=":A2_5" function="internal">
        <lane id=":A2_5_0" index="0" speed="13.89" length="21.09" shape="4.80,392.80 5.30,399.79 6.40,405.27 7.50,409.72 8.00,413.60"/>
    </edge>
    <edge id=":A2A1.101.00_0" function="internal">
        <lane id=":A2A1.101.00_0_0" index="0" speed="13.89" length="9.22" shape="-1.60,306.20 -1.60,298.20"/>
        <lane id=":A2A1.101.00_0_1" index="1" speed="13.89" length="9.22" shape="-1.60,306.20 -1.10,303.74 -0.00,302.20 1.10,300.66 1.60,298.20"/>
        <lane id=":A2A1.101.00_0_2" index="2" speed="13.89" length="9.22" shape="-1.60,306.20 -0.60,303.56 1.60,302.25 3.80,300.91 4.80,298.20"/>
    </edge>
    <edge id=":A2A3.101.00_0" function="internal">
        <lane id=":A2A3.101.00_0_0" index="0" speed="13.89" length="9.22" shape="8.00,500.20 8.00,508.20"/>
        <lane id=":A2A3.101.00_0_1" index="1" speed="13.89" length="9.22" shape="8.00,500.20 7.50,502.66 6.40,504.20 5.30,505.74 4.80,508.20"/>
        <lane id=":A2A3.101.00_0_2" index="2" speed="13.89" length="9.22" shape="8.00,500.20 7.00,502.84 4.80,504.15 2.60,505.49 1.60,508.20"/>
    </edge>
    <edge id=":A2B2.101.00_0" function="internal">
        <lane id=":A2B2.101.00_0_0" index="0" speed="13.89" length="9.22" shape="100.20,398.40 108.20,398.40"/>
        <lane id=":A2B2.101.00_0_1" index="1" speed="13.89" length="9.22" shape="100.20,398.40 102.66,398.90 104.20,400.00 105.74,401.10 108.20,401.60"/>
        <lane id=":A2B2.101.00_0_2" index="2" speed="13.89" length="9.22" shape="100.20,398.40 102.84,399.40 104.15,401.60 105.49,403.80 108.20,404.80"/>
    </edge>
    <edge id=":A3_0" function="internal">
        <lane id=":A3_0_0" index="0" speed="13.89" length="20.80" shape="-1.60,613.60 -1.60,592.80"/>
    </edge>
    <edge id=":A3_1" function="internal">
        <lane id=":A3_1_0" index="0" speed="9.32" length="6.12" shape="4.80,613.60 5.30,607.50"/>
    </edge>
    <edge id=":A3_6" function="internal">
        <lane id=":A3_6_0" index="0" speed="9.32" length="13.51" shape="5.30,607.50 5.35,606.95 7.00,602.20 9.75,599.35 13.60,598.40"/>
    </edge>
    <edge id=":A3_2" function="internal">
        <lane id=":A3_2_0" index="0" speed="6.51" length="9.03" shape="13.60,608.00 11.15,608.35 9.40,609.40 8.35,611.15 8.00,613.60"/>
    </edge>
    <edge id=":A3_3" function="internal">
        <lane id=":A3_3_0" index="0" speed="9.32" length="19.63" shape="13.60,601.60 6.95,601.05 2.20,599.40 -0.65,596.65 -1.60,592.80"/>
    </edge>
    <edge id=":A3_4" function="internal">
        <lane id=":A3_4_0" index="0" speed="6.51" length="9.03" shape="8.00,592.80 8.35,595.25 9.40,597.00 11.15,598.05 13.60,598.40"/>
    </edge>
    <edge id=":A3_5" function="internal">
        <lane id=":A3_5_0" index="0" speed="13.89" length="21.09" shape="4.80,592.80 5.30,599.79 6.40,605.27 7.50,609.72 8.00,613.60"/>
    </edge>
    <edge id=":A3A2.101.00_0" function="internal">
        <lane id=":A3A2.101.00_0_0" index="0" speed="13.89" length="9.22" shape="-1.60,506.20 -1.60,498.20"/>
        <lane id=":A3A2.101.00_0_1" index="1" speed="13.89" length="9.22" shape="-1.60,506.20 -1.10,503.74 -0.00,502.20 1.10,500.66 1.60,498.20"/>
        <lane id=":A3A2.101.00_0_2" index="2" speed="13.89" length="9.22" shape="-1.60,506.20 -0.60,503.56 1.60,502.25 3.80,500.91 4.80,498.20"/>
    </edge>
    <edge id=":A3B3.101.00_0" function="internal">
        <lane id=":A3B3.101.00_0_0" index="0" speed="13.89" length="9.22" shape="100.20,598.40 108.20,598.40"/>
        <lane id=":A3B3.101.00_0_1" index="1" speed="13.89" length="9.22" shape="100.20,598.40 102.66,598.90 104.20,600.00 105.74,601.10 108.20,601.60"/>
        <lane id=":A3B3.101.00_0_2" index="2" speed="13.89" length="9.22" shape="100.20,598.40 102.84,599.40 104.15,601.60 105.49,603.80 108.20,604.80"/>
    </edge>
    <edge id=":A4_0" function="internal">
        <lane id=":A4_0_0" index="0" speed="8.96" length="18.06" shape="9.60,808.00 4.70,807.30 1.20,805.20 -0.90,801.70 -1.60,796.80"/>
    </edge>
    <edge id=":A4_1" function="internal">
        <lane id=":A4_1_0" index="0" speed="3.90" length="2.58" shape="8.00,796.80 8.10,797.50 8.40,798.00 8.90,798.30 9.60,798.40"/>
    </edge>
    <edge id=":A4A3.101.00_0" function="internal">
        <lane id=":A4A3.101.00_0_0" index="0" speed="13.89" length="9.22" shape="-1.60,706.20 -1.60,698.20"/>
        <lane id=":A4A3.101.00_0_1" index="1" speed="13.89" length="9.22" shape="-1.60,706.20 -1.10,703.74 -0.00,702.20 1.10,700.66 1.60,698.20"/>
        <lane id=":A4A3.101.00_0_2" index="2" speed="13.89" length="9.22" shape="-1.60,706.20 -0.60,703.56 1.60,702.25 3.80,700.91 4.80,698.20"/>
    </edge>
    <edge id=":A4B4.101.00_0" function="internal">
        <lane id=":A4B4.101.00_0_0" index="0" speed="13.89" length="9.22" shape="100.20,798.40 108.20,798.40"/>
        <lane id=":A4B4.101.00_0_1" index="1" speed="13.89" length="9.22" shape="100.20,798.40 102.66,798.90 104.20,800.00 105.74,801.10 108.20,801.60"/>
        <lane id=":A4B4.101.00_0_2" index="2" speed="13.89" length="9.22" shape="100.20,798.40 102.84,799.40 104.15,801.60 105.49,803.80 108.20,804.80"/>
    </edge>
    <edge id=":B0_0" function="internal">
        <lane id=":B0_0_0" index="0" speed="6.51" length="9.03" shape="198.40,13.60 198.05,11.15 197.00,9.40 195.25,8.35 192.80,8.00"/>
    </edge>
    <edge id=":B0_1" function="internal">
        <lane id=":B0_1_0" index="0" speed="9.32" length="19.63" shape="204.80,13.60 205.35,6.95 207.00,2.20 209.75,-0.65 213.60,-1.60"/>
    </edge>
    <edge id=":B0_2" function="internal">
        <lane id=":B0_2_0" index="0" speed="6.51" length="9.03" shape="213.60,8.00 211.15,8.35 209.40,9.40 208.35,11.15 208.00,13.60"/>
    </edge>
    <edge id=":B0_3" function="internal">
        <lane id=":B0_3_0" index="0" speed="13.89" length="21.09" shape="213.60,4.80 206.61,5.30 201.13,6.40 196.68,7.50 192.80,8.00"/>
    </edge>
    <edge id=":B0_4" function="internal">
        <lane id=":B0_4_0" index="0" speed="13.89" length="20.80" shape="192.80,-1.60 213.60,-1.60"/>
    </edge>
    <edge id=":B0_5" function="internal">
        <lane id=":B0_5_0" index="0" speed="9.32" length="6.12" shape="192.80,4.80 198.90,5.30"/>
    </edge>
    <edge id=":B0_6" function="internal">
        <lane id=":B0_6_0" index="0" speed="9.32" length="13.51" shape="198.90,5.30 199.45,5.35 204.20,7.00 207.05,9.75 208.00,13.60"/>
    </edge>
    <edge id=":B0B1.101.00_0" function="internal">
        <lane id=":B0B1.101.00_0_0" index="0" speed="13.89" length="9.22" shape="208.00,100.20 208.00,108.20"/>
        <lane id=":B0B1.101.00_0_1" index="1" speed="13.89" length="9.22" shape="208.00,100.20 207.50,102.66 206.40,104.20 205.30,105.74 204.80,108.20"/>
        <lane id=":B0B1.101.00_0_2" index="2" speed="13.89" length="9.22" shape="208.00,100.20 207.00,102.84 204.80,104.15 202.60,105.49 201.60,108.20"/>
    </edge>
    <edge id=":B0C0.101.00_0" function="internal">
        <lane id=":B0C0.101.00_0_0" index="0" speed="13.89" length="9.22" shape="300.20,-1.60 308.20,-1.60"/>
        <lane id=":B0C0.101.00_0_1" index="1" speed="13.89" length="9.22" shape="300.20,-1.60 302.66,-1.10 304.20,-0.00 305.74,1.10 308.20,1.60"/>
        <lane id=":B0C0.101.00_0_2" index="2" speed="13.89" length="9.22" shape="300.20,-1.60 302.84,-0.60 304.15,1.60 305.49,3.80 308.20,4.80"/>
    </edge>
    <edge id=":B1_0" function="internal">
        <lane id=":B1_0_0" index="0" speed="6.51" length="9.03" shape="198.40,213.60 198.05,211.15 197.00,209.40 195.25,208.35 192.80,208.00"/>
    </edge>
    <edge id=":B1_1" function="internal">
        <lane id=":B1_1_0" index="0" speed="13.89" length="21.09" shape="201.60,213.60 201.10,206.61 200.00,201.13 198.90,196.68 198.40,192.80"/>
    </edge>
    <edge id=":B1_2" function="internal">
        <lane id=":B1_2_0" index="0" speed="9.32" length="6.12" shape="204.80,213.60 205.30,207.50"/>
    </edge>
    <edge id=":B1_12" function="internal">
        <lane id=":B1_12_0" index="0" speed="9.32" length="13.51" shape="205.30,207.50 205.35,206.95 207.00,202.20 209.75,199.35 213.60,198.40"/>
    </edge>
    <edge id=":B1_3" function="internal">
        <lane id=":B1_3_0" index="0" speed="6.51" length="9.03" shape="213.60,208.00 211.15,208.35 209.40,209.40 208.35,211.15 208.00,213.60"/>
    </edge>
    <edge id=":B1_4" function="internal">
        <lane id=":B1_4_0" index="0" speed="13.89" length="21.09" shape="213.60,204.80 206.61,205.30 201.13,206.40 196.68,207.50 192.80,208.00"/>
    </edge>
    <edge id=":B1_5" function="internal">
        <lane id=":B1_5_0" index="0" speed="9.32" length="6.12" shape="213.60,201.60 207.50,201.10"/>
    </edge>
    <edge id=":B1_13" function="internal">
        <lane id=":B1_13_0" index="0" speed="9.32" length="13.51" shape="207.50,201.10 206.95,201.05 202.20,199.40 199.35,196.65 198.40,192.80"/>
    </edge>
    <edge id=":B1_6" function="internal">
        <lane id=":B1_6_0" index="0" speed="6.51" length="9.03" shape="208.00,192.80 208.35,195.25 209.40,197.00 211.15,198.05 213.60,198.40"/>
    </edge>
    <edge id=":B1_7" function="internal">
        <lane id=":B1_7_0" index="0" speed="13.89" length="21.09" shape="204.80,192.80 205.30,199.79 206.40,205.27 207.50,209.72 208.00,213.60"/>
    </edge>
    <edge id=":B1_8" function="internal">
        <lane id=":B1_8_0" index="0" speed="9.32" length="6.12" shape="201.60,192.80 201.10,198.90"/>
    </edge>
    <edge id=":B1_14" function="internal">
        <lane id=":B1_14_0" index="0" speed="9.32" length="13.51" shape="201.10,198.90 201.05,199.45 199.40,204.20 196.65,207.05 192.80,208.00"/>
    </edge>
    <edge id=":B1_9" function="internal">
        <lane id=":B1_9_0" index="0" speed="6.51" length="9.03" shape="192.80,198.40 195.25,198.05 197.00,197.00 198.05,195.25 198.40,192.80"/>
    </edge>
    <edge id=":B1_10" function="internal">
        <lane id=":B1_10_0" index="0" speed="13.89" length="21.09" shape="192.80,201.60 199.79,201.10 205.27,200.00 209.72,198.90 213.60,198.40"/>
    </edge>
    <edge id=":B1_11" function="internal">
        <lane id=":B1_11_0" index="0" speed="9.32" length="6.12" shape="192.80,204.80 198.90,205.30"/>
    </edge>
    <edge id=":B1_15" function="internal">
        <lane id=":B1_15_0" index="0" speed="9.32" length="13.51" shape="198.90,205.30 199.45,205.35 204.20,207.00 207.05,209.75 208.00,213.60"/>
    </edge>
    <edge id=":B1A1.101.00_0" function="internal">
        <lane id=":B1A1.101.00_0_0" index="0" speed="13.89" length="9.22" shape="106.20,208.00 98.20,208.00"/>
        <lane id=":B1A1.101.00_0_1" index="1" speed="13.89" length="9.22" shape="106.20,208.00 103.74,207.50 102.20,206.40 100.66,205.30 98.20,204.80"/>
        <lane id=":B1A1.101.00_0_2" index="2" speed="13.89" length="9.22" shape="106.20,208.00 103.56,207.00 102.25,204.80 100.91,202.60 98.20,201.60"/>
    </edge>
    <edge id=":B1B0.101.00_0" function="internal">
        <lane id=":B1B0.101.00_0_0" index="0" speed="13.89" length="9.22" shape="198.40,106.20 198.40,98.20"/>
        <lane id=":B1B0.101.00_0_1" index="1" speed="13.89" length="9.22" shape="198.40,106.20 198.90,103.74 200.00,102.20 201.10,100.66 201.60,98.20"/>
        <lane id=":B1B0.101.00_0_2" index="2" speed="13.89" length="9.22" shape="198.40,106.20 199.40,103.56 201.60,102.25 203.80,100.91 204.80,98.20"/>
    </edge>
    <edge id=":B1B2.101.00_0" function="internal">
        <lane id=":B1B2.101.00_0_0" index="0" speed="13.89" length="9.22" shape="208.00,300.20 208.00,308.20"/>
        <lane id=":B1B2.101.00_0_1" index="1" speed="13.89" length="9.22" shape="208.00,300.20 207.50,302.66 206.40,304.20 205.30,305.74 204.80,308.20"/>
        <lane id=":B1B2.101.00_0_2" index="2" speed="13.89" length="9.22" shape="208.00,300.20 207.00,302.84 204.80,304.15 202.60,305.49 201.60,308.20"/>
    </edge>
    <edge id=":B1C1.101.00_0" function="internal">
        <lane id=":B1C1.101.00_0_0" index="0" speed="13.89" length="9.22" shape="300.20,198.40 308.20,198.40"/>
        <lane id=":B1C1.101.00_0_1" index="1" speed="13.89" length="9.22" shape="300.20,198.40 302.66,198.90 304.20,200.00 305.74,201.10 308.20,201.60"/>
        <lane id=":B1C1.101.00_0_2" index="2" speed="13.89" length="9.22" shape="300.20,198.40 302.84,199.40 304.15,201.60 305.49,203.80 308.20,204.80"/>
    </edge>
    <edge id=":B2_0" function="internal">
        <lane id=":B2_0_0" index="0" speed="6.51" length="9.03" shape="198.40,413.60 198.05,411.15 197.00,409.40 195.25,408.35 192.80,408.00"/>
    </edge>
    <edge id=":B2_1" function="internal">
        <lane id=":B2_1_0" index="0" speed="13.89" length="21.09" shape="201.60,413.60 201.10,406.61 200.00,401.13 198.90,396.68 198.40,392.80"/>
    </edge>
    <edge id=":B2_2" function="internal">
        <lane id=":B2_2_0" index="0" speed="9.32" length="6.12" shape="204.80,413.60 205.30,407.50"/>
    </edge>
    <edge id=":B2_12" function="internal">
        <lane id=":B2_12_0" index="0" speed="9.32" length="13.51" shape="205.30,407.50 205.35,406.95 207.00,402.20 209.75,399.35 213.60,398.40"/>
    </edge>
    <edge id=":B2_3" function="internal">
        <lane id=":B2_3_0" index="0" speed="6.51" length="9.03" shape="213.60,408.00 211.15,408.35 209.40,409.40 208.35,411.15 208.00,413.60"/>
    </edge>
    <edge id=":B2_4" function="internal">
        <lane id=":B2_4_0" index="0" speed="13.89" length="21.09" shape="213.60,404.80 206.61,405.30 201.13,406.40 196.68,407.50 192.80,408.00"/>
    </edge>
    <edge id=":B2_5" function="internal">
        <lane id=":B2_5_0" index="0" speed="9.32" length="6.12" shape="213.60,401.60 207.50,401.10"/>
    </edge>
    <edge id=":B2_13" function="internal">
        <lane id=":B2_13_0" index="0" speed="9.32" length="13.51" shape="207.50,401.10 206.95,401.05 202.20,399.40 199.35,396.65 198.40,392.80"/>
    </edge>
    <edge id=":B2_6" function="internal">
        <lane id=":B2_6_0" index="0" speed="6.51" length="9.03" shape="208.00,392.80 208.35,395.25 209.40,397.00 211.15,398.05 213.60,398.40"/>
    </edge>
    <edge id=":B2_7" function="internal">
        <lane id=":B2_7_0" index="0" speed="13.89" length="21.09" shape="204.80,392.80 205.30,399.79 206.40,405.27 207.50,409.72 208.00,413.60"/>
    </edge>
    <edge id=":B2_8" function="internal">
        <lane id=":B2_8_0" index="0" speed="9.32" length="6.12" shape="201.60,392.80 201.10,398.90"/>
    </edge>
    <edge id=":B2_14" function="internal">
        <lane id=":B2_14_0" index="0" speed="9.32" length="13.51" shape="201.10,398.90 201.05,399.45 199.40,404.20 196.65,407.05 192.80,408.00"/>
    </edge>
    <edge id=":B2_9" function="internal">
        <lane id=":B2_9_0" index="0" speed="6.51" length="9.03" shape="192.80,398.40 195.25,398.05 197.00,397.00 198.05,395.25 198.40,392.80"/>
    </edge>
    <edge id=":B2_10" function="internal">
        <lane id=":B2_10_0" index="0" speed="13.89" length="21.09" shape="192.80,401.60 199.79,401.10 205.27,400.00 209.72,398.90 213.60,398.40"/>
    </edge>
    <edge id=":B2_11" function="internal">
        <lane id=":B2_11_0" index="0" speed="9.32" length="6.12" shape="192.80,404.80 198.90,405.30"/>
    </edge>
    <edge id=":B2_15" function="internal">
        <lane id=":B2_15_0" index="0" speed="9.32" length="13.51" shape="198.90,405.30 199.45,405.35 204.20,407.00 207.05,409.75 208.00,413.60"/>
    </edge>
    <edge id=":B2A2.101.00_0" function="internal">
        <lane id=":B2A2.101.00_0_0" index="0" speed="13.89" length="9.22" shape="106.20,408.00 98.20,408.00"/>
        <lane id=":B2A2.101.00_0_1" index="1" speed="13.89" length="9.22" shape="106.20,408.00 103.74,407.50 102.20,406.40 100.66,405.30 98.20,404.80"/>
        <lane id=":B2A2.101.00_0_2" index="2" speed="13.89" length="9.22" shape="106.20,408.00 103.56,407.00 102.25,404.80 100.91,402.60 98.20,401.60"/>
    </edge>
    <edge id=":B2B1.101.00_0" function="internal">
        <lane id=":B2B1.101.00_0_0" index="0" speed="13.89" length="9.22" shape="198.40,306.20 198.40,298.20"/>
        <lane id=":B2B1.101.00_0_1" index="1" speed="13.89" length="9.22" shape="198.40,306.20 198.90,303.74 200.00,302.20 201.10,300.66 201.60,298.20"/>
        <lane id=":B2B1.101.00_0_2" index="2" speed="13.89" length="9.22" shape="198.40,306.20 199.40,303.56 201.60,302.25 203.80,300.91 204.80,298.20"/>
    </edge>
    <edge id=":B2B3.101.00_0" function="internal">
        <lane id=":B2B3.101.00_0_0" index="0" speed="13.89" length="9.22" shape="208.00,500.20 208.00,508.20"/>
        <lane id=":B2B3.101.00_0_1" index="1" speed="13.89" length="9.22" shape="208.00,500.20 207.50,502.66 206.40,504.20 205.30,505.74 204.80,508.20"/>
        <lane id=":B2B3.101.00_0_2" index="2" speed="13.89" length="9.22" shape="208.00,500.20 207.00,502.84 204.80,504.15 202.60,505.49 201.60,508.20"/>
    </edge>
    <edge id=":B2C2.101.00_0" function="internal">
        <lane id=":B2C2.101.00_0_0" index="0" speed="13.89" length="9.22" shape="300.20,398.40 308.20,398.40"/>
        <lane id=":B2C2.101.00_0_1" index="1" speed="13.89" length="9.22" shape="300.20,398.40 302.66,398.90 304.20,400.00 305.74,401.10 308.20,401.60"/>
        <lane id=":B2C2.101.00_0_2" index="2" speed="13.89" length="9.22" shape="300.20,398.40 302.84,399.40 304.15,401.60 305.49,403.80 308.20,404.80"/>
    </edge>
    <edge id=":B3_0" function="internal">
        <lane id=":B3_0_0" index="0" speed="6.51" length="9.03" shape="198.40,613.60 198.05,611.15 197.00,609.40 195.25,608.35 192.80,608.00"/>
    </edge>
    <edge id=":B3_1" function="internal">
        <lane id=":B3_1_0" index="0" speed="13.89" length="21.09" shape="201.60,613.60 201.10,606.61 200.00,601.13 198.90,596.68 198.40,592.80"/>
    </edge>
    <edge id=":B3_2" function="internal">
        <lane id=":B3_2_0" index="0" speed="9.32" length="6.12" shape="204.80,613.60 205.30,607.50"/>
    </edge>
    <edge id=":B3_12" function="internal">
        <lane id=":B3_12_0" index="0" speed="9.32" length="13.51" shape="205.30,607.50 205.35,606.95 207.00,602.20 209.75,599.35 213.60,598.40"/>
    </edge>
    <edge id=":B3_3" function="internal">
        <lane id=":B3_3_0" index="0" speed="6.51" length="9.03" shape="213.60,608.00 211.15,608.35 209.40,609.40 208.35,611.15 208.00,613.60"/>
    </edge>
    <edge id=":B3_4" function="internal">
        <lane id=":B3_4_0" index="0" speed="13.89" length="21.09" shape="213.60,604.80 206.61,605.30 201.13,606.40 196.68,607.50 192.80,608.00"/>
    </edge>
    <edge id=":B3_5" function="internal">
        <lane id=":B3_5_0" index="0" speed="9.32" length="6.12" shape="213.60,601.60 207.50,601.10"/>
    </edge>
    <edge id=":B3_13" function="internal">
        <lane id=":B3_13_0" index="0" speed="9.32" length="13.51" shape="207.50,601.10 206.95,601.05 202.20,599.40 199.35,596.65 198.40,592.80"/>
    </edge>
    <edge id=":B3_6" function="internal">
        <lane id=":B3_6_0" index="0" speed="6.51" length="9.03" shape="208.00,592.80 208.35,595.25 209.40,597.00 211.15,598.05 213.60,598.40"/>
    </edge>
    <edge id=":B3_7" function="internal">
        <lane id=":B3_7_0" index="0" speed="13.89" length="21.09" shape="204.80,592.80 205.30,599.79 206.40,605.27 207.50,609.72 208.00,613.60"/>
    </edge>
    <edge id=":B3_8" function="internal">
        <lane id=":B3_8_0" index="0" speed="9.32" length="6.12" shape="201.60,592.80 201.10,598.90"/>
    </edge>
    <edge id=":B3_14" function="internal">
        <lane id=":B3_14_0" index="0" speed="9.32" length="13.51" shape="201.10,598.90 201.05,599.45 199.40,604.20 196.65,607.05 192.80,608.00"/>
    </edge>
    <edge id=":B3_9" function="internal">
        <lane id=":B3_9_0" index="0" speed="6.51" length="9.03" shape="192.80,598.40 195.25,598.05 197.00,597.00 198.05,595.25 198.40,592.80"/>
    </edge>
    <edge id=":B3_10" function="internal">
        <lane id=":B3_10_0" index="0" speed="13.89" length="21.09" shape="192.80,601.60 199.79,601.10 205.27,600.00 209.72,598.90 213.60,598.40"/>
    </edge>
    <edge id=":B3_11" function="internal">
        <lane id=":B3_11_0" index="0" speed="9.32" length="6.12" shape="192.80,604.80 198.90,605.30"/>
    </edge>
    <edge id=":B3_15" function="internal">
        <lane id=":B3_15_0" index="0" speed="9.32" length="13.51" shape="198.90,605.30 199.45,605.35 204.20,607.00 207.05,609.75 208.00,613.60"/>
    </edge>
    <edge id=":B3A3.101.00_0" function="internal">
        <lane id=":B3A3.101.00_0_0" index="0" speed="13.89" length="9.22" shape="106.20,608.00 98.20,608.00"/>
        <lane id=":B3A3.101.00_0_1" index="1" speed="13.89" length="9.22" shape="106.20,608.00 103.74,607.50 102.20,606.40 100.66,605.30 98.20,604.80"/>
        <lane id=":B3A3.101.00_0_2" index="2" speed="13.89" length="9.22" shape="106.20,608.00 103.56,607.00 102.25,604.80 100.91,602.60 98.20,601.60"/>
    </edge>
    <edge id=":B3B2.101.00_0" function="internal">
        <lane id=":B3B2.101.00_0_0" index="0" speed="13.89" length="9.22" shape="198.40,506.20 198.40,498.20"/>
        <lane id=":B3B2.101.00_0_1" index="1" speed="13.89" length="9.22" shape="198.40,506.20 198.90,503.74 200.00,502.20 201.10,500.66 201.60,498.20"/>
        <lane id=":B3B2.101.00_0_2" index="2" speed="13.89" length="9.22" shape="198.40,506.20 199.40,503.56 201.60,502.25 203.80,500.91 204.80,498.20"/>
    </edge>
    <edge id=":B3B4.101.00_0" function="internal">
        <lane id=":B3B4.101.00_0_0" index="0" speed="13.89" length="9.22" shape="208.00,700.20 208.00,708.20"/>
        <lane id=":B3B4.101.00_0_1" index="1" speed="13.89" length="9.22" shape="208.00,700.20 207.50,702.66 206.40,704.20 205.30,705.74 204.80,708.20"/>
        <lane id=":B3B4.101.00_0_2" index="2" speed="13.89" length="9.22" shape="208.00,700.20 207.00,702.84 204.80,704.15 202.60,705.49 201.60,708.20"/>
    </edge>
    <edge id=":B3C3.101.00_0" function="internal">
        <lane id=":B3C3.101.00_0_0" index="0" speed="13.89" length="9.22" shape="300.20,598.40 308.20,598.40"/>
        <lane id=":B3C3.101.00_0_1" index="1" speed="13.89" length="9.22" shape="300.20,598.40 302.66,598.90 304.20,600.00 305.74,601.10 308.20,601.60"/>
        <lane id=":B3C3.101.00_0_2" index="2" speed="13.89" length="9.22" shape="300.20,598.40 302.84,599.40 304.15,601.60 305.49,603.80 308.20,604.80"/>
    </edge>
    <edge id=":B4_0" function="internal">
        <lane id=":B4_0_0" index="0" speed="13.89" length="20.80" shape="213.60,808.00 192.80,808.00"/>
    </edge>
    <edge id=":B4_1" function="internal">
        <lane id=":B4_1_0" index="0" speed="9.32" length="6.12" shape="213.60,801.60 207.50,801.10"/>
    </edge>
    <edge id=":B4_6" function="internal">
        <lane id=":B4_6_0" index="0" speed="9.32" length="13.51" shape="207.50,801.10 206.95,801.05 202.20,799.40 199.35,796.65 198.40,792.80"/>
    </edge>
    <edge id=":B4_2" function="internal">
        <lane id=":B4_2_0" index="0" speed="6.51" length="9.03" shape="208.00,792.80 208.35,795.25 209.40,797.00 211.15,798.05 213.60,798.40"/>
    </edge>
    <edge id=":B4_3" function="internal">
        <lane id=":B4_3_0" index="0" speed="9.32" length="19.63" shape="201.60,792.80 201.05,799.45 199.40,804.20 196.65,807.05 192.80,808.00"/>
    </edge>
    <edge id=":B4_4" function="internal">
        <lane id=":B4_4_0" index="0" speed="6.51" length="9.03" shape="192.80,798.40 195.25,798.05 197.00,797.00 198.05,795.25 198.40,792.80"/>
    </edge>
    <edge id=":B4_5" function="internal">
        <lane id=":B4_5_0" index="0" speed="13.89" length="21.09" shape="192.80,801.60 199.79,801.10 205.27,800.00 209.72,798.90 213.60,798.40"/>
    </edge>
    <edge id=":B4B3.101.00_0" function="internal">
        <lane id=":B4B3.101.00_0_0" index="0" speed="13.89" length="9.22" shape="198.40,706.20 198.40,698.20"/>
        <lane id=":B4B3.101.00_0_1" index="1" speed="13.89" length="9.22" shape="198.40,706.20 198.90,703.74 200.00,702.20 201.10,700.66 201.60,698.20"/>
        <lane id=":B4B3.101.00_0_2" index="2" speed="13.89" length="9.22" shape="198.40,706.20 199.40,703.56 201.60,702.25 203.80,700.91 204.80,698.20"/>
    </edge>
    <edge id=":B4C4.101.00_0" function="internal">
        <lane id=":B4C4.101.00_0_0" index="0" speed="13.89" length="9.22" shape="300.20,798.40 308.20,798.40"/>