<?xml version="1.0" encoding="UTF-8"?>

<!-- generated on 2021-10-24 16:55:27 by Eclipse SUMO netgenerate Version 1.10.0
<configuration xmlns:xsi="http://www.w3.org/2001/XMLSchema-instance" xsi:noNamespaceSchemaLocation="http://sumo.dlr.de/xsd/netgenerateConfiguration.xsd">

    <grid_network>
        <grid value="true"/>
        <grid.number value="3"/>
        <grid.length value="200"/>
    </grid_network>

    <output>
        <output-file value="grid.net.xml"/>
    </output>

    <processing>
        <turn-lanes value="2"/>
        <turn-lanes.length value="99"/>
    </processing>

    <building_defaults>
        <default.lanenumber value="1"/>
        <default-junction-type value="traffic_light"/>
    </building_defaults>

    <tls_building>
        <tls.cycle.time value="90"/>
    </tls_building>

    <junctions>
        <no-internal-links value="true"/>
        <no-turnarounds value="true"/>
    </junctions>

</configuration>
-->

<net version="1.9" junctionCornerDetail="5" limitTurnSpeed="5.50" xmlns:xsi="http://www.w3.org/2001/XMLSchema-instance" xsi:noNamespaceSchemaLocation="http://sumo.dlr.de/xsd/net_file.xsd">

    <location netOffset="3.20,3.20" convBoundary="0.00,0.00,406.40,406.40" origBoundary="0.00,0.00,400.00,400.00" projParameter="!"/>

    <edge id="A0A1" from="A0" to="A0A1.101.00" priority="-1" shape="6.40,3.20 6.40,104.20">
        <lane id="A0A1_0" index="0" speed="13.89" length="102.88" shape="8.00,9.60 8.00,100.20"/>
    </edge>
    <edge id="A0A1.101.00" from="A0A1.101.00" to="A1" priority="-1" shape="0.00,104.20 0.00,203.20">
        <lane id="A0A1.101.00_0" index="0" speed="13.89" length="100.60" shape="8.00,108.20 8.00,192.80"/>
        <lane id="A0A1.101.00_1" index="1" speed="13.89" length="100.60" shape="4.80,108.20 4.80,192.80"/>
        <lane id="A0A1.101.00_2" index="2" speed="13.89" length="100.60" shape="1.60,108.20 1.60,192.80"/>
    </edge>
    <edge id="A0B0" from="A0" to="A0B0.101.00" priority="-1" shape="3.20,0.00 104.20,0.00">
        <lane id="A0B0_0" index="0" speed="13.89" length="102.88" shape="9.60,-1.60 100.20,-1.60"/>
    </edge>
    <edge id="A0B0.101.00" from="A0B0.101.00" to="B0" priority="-1" shape="104.20,6.40 203.20,6.40">
        <lane id="A0B0.101.00_0" index="0" speed="13.89" length="100.60" shape="108.20,-1.60 192.80,-1.60"/>
        <lane id="A0B0.101.00_1" index="1" speed="13.89" length="100.60" shape="108.20,1.60 192.80,1.60"/>
        <lane id="A0B0.101.00_2" index="2" speed="13.89" length="100.60" shape="108.20,4.80 192.80,4.80"/>
    </edge>
    <edge id="A1A0" from="A1" to="A0" priority="-1" shape="0.00,203.20 0.00,3.20">
        <lane id="A1A0_0" index="0" speed="13.89" length="201.24" shape="-1.60,192.80 -1.60,9.60"/>
    </edge>
    <edge id="A1A2" from="A1" to="A2" priority="-1" shape="6.40,203.20 6.40,403.20">
        <lane id="A1A2_0" index="0" speed="13.89" length="201.24" shape="8.00,213.60 8.00,396.80"/>
    </edge>
    <edge id="A1B1" from="A1" to="A1B1.101.00" priority="-1" shape="3.20,200.00 104.20,200.00">
        <lane id="A1B1_0" index="0" speed="13.89" length="102.60" shape="13.60,198.40 100.20,198.40"/>
    </edge>
    <edge id="A1B1.101.00" from="A1B1.101.00" to="B1" priority="-1" shape="104.20,206.40 203.20,206.40">
        <lane id="A1B1.101.00_0" index="0" speed="13.89" length="100.60" shape="108.20,198.40 192.80,198.40"/>
        <lane id="A1B1.101.00_1" index="1" speed="13.89" length="100.60" shape="108.20,201.60 192.80,201.60"/>
        <lane id="A1B1.101.00_2" index="2" speed="13.89" length="100.60" shape="108.20,204.80 192.80,204.80"/>
    </edge>
    <edge id="A2A1" from="A2" to="A2A1.101.00" priority="-1" shape="0.00,403.20 0.00,302.20">
        <lane id="A2A1_0" index="0" speed="13.89" length="102.88" shape="-1.60,396.80 -1.60,306.20"/>
    </edge>
    <edge id="A2A1.101.00" from="A2A1.101.00" to="A1" priority="-1" shape="6.40,302.20 6.40,203.20">
        <lane id="A2A1.101.00_0" index="0" speed="13.89" length="100.60" shape="-1.60,298.20 -1.60,213.60"/>
        <lane id="A2A1.101.00_1" index="1" speed="13.89" length="100.60" shape="1.60,298.20 1.60,213.60"/>
        <lane id="A2A1.101.00_2" index="2" speed="13.89" length="100.60" shape="4.80,298.20 4.80,213.60"/>
    </edge>
    <edge id="A2B2" from="A2" to="A2B2.101.00" priority="-1" shape="3.20,400.00 104.20,400.00">
        <lane id="A2B2_0" index="0" speed="13.89" length="102.88" shape="9.60,398.40 100.20,398.40"/>
    </edge>
    <edge id="A2B2.101.00" from="A2B2.101.00" to="B2" priority="-1" shape="104.20,406.40 203.20,406.40">
        <lane id="A2B2.101.00_0" index="0" speed="13.89" length="100.60" shape="108.20,398.40 192.80,398.40"/>
        <lane id="A2B2.101.00_1" index="1" speed="13.89" length="100.60" shape="108.20,401.60 192.80,401.60"/>
        <lane id="A2B2.101.00_2" index="2" speed="13.89" length="100.60" shape="108.20,404.80 192.80,404.80"/>
    </edge>
    <edge id="B0A0" from="B0" to="A0" priority="-1" shape="203.20,6.40 3.20,6.40">
        <lane id="B0A0_0" index="0" speed="13.89" length="201.24" shape="192.80,8.00 9.60,8.00"/>
    </edge>
    <edge id="B0B1" from="B0" to="B0B1.101.00" priority="-1" shape="206.40,3.20 206.40,104.20">
        <lane id="B0B1_0" index="0" speed="13.89" length="102.60" shape="208.00,13.60 208.00,100.20"/>
    </edge>
    <edge id="B0B1.101.00" from="B0B1.101.00" to="B1" priority="-1" shape="200.00,104.20 200.00,203.20">
        <lane id="B0B1.101.00_0" index="0" speed="13.89" length="100.60" shape="208.00,108.20 208.00,192.80"/>
        <lane id="B0B1.101.00_1" index="1" speed="13.89" length="100.60" shape="204.80,108.20 204.80,192.80"/>
        <lane id="B0B1.101.00_2" index="2" speed="13.89" length="100.60" shape="201.60,108.20 201.60,192.80"/>
    </edge>
    <edge id="B0C0" from="B0" to="C0" priority="-1" shape="203.20,0.00 403.20,0.00">
        <lane id="B0C0_0" index="0" speed="13.89" length="201.24" shape="213.60,-1.60 396.80,-1.60"/>
    </edge>
    <edge id="B1A1" from="B1" to="B1A1.101.00" priority="-1" shape="203.20,206.40 102.20,206.40">
        <lane id="B1A1_0" index="0" speed="13.89" length="102.60" shape="192.80,208.00 106.20,208.00"/>
    </edge>
    <edge id="B1A1.101.00" from="B1A1.101.00" to="A1" priority="-1" shape="102.20,200.00 3.20,200.00">
        <lane id="B1A1.101.00_0" index="0" speed="13.89" length="100.60" shape="98.20,208.00 13.60,208.00"/>
        <lane id="B1A1.101.00_1" index="1" speed="13.89" length="100.60" shape="98.20,204.80 13.60,204.80"/>
        <lane id="B1A1.101.00_2" index="2" speed="13.89" length="100.60" shape="98.20,201.60 13.60,201.60"/>
    </edge>
    <edge id="B1B0" from="B1" to="B1B0.101.00" priority="-1" shape="200.00,203.20 200.00,102.20">
        <lane id="B1B0_0" index="0" speed="13.89" length="102.60" shape="198.40,192.80 198.40,106.20"/>
    </edge>
    <edge id="B1B0.101.00" from="B1B0.101.00" to="B0" priority="-1" shape="206.40,102.20 206.40,3.20">
        <lane id="B1B0.101.00_0" index="0" speed="13.89" length="100.60" shape="198.40,98.20 198.40,13.60"/>
        <lane id="B1B0.101.00_1" index="1" speed="13.89" length="100.60" shape="201.60,98.20 201.60,13.60"/>
        <lane id="B1B0.101.00_2" index="2" speed="13.89" length="100.60" shape="204.80,98.20 204.80,13.60"/>
    </edge>
    <edge id="B1B2" from="B1" to="B1B2.101.00" priority="-1" shape="206.40,203.20 206.40,304.20">
        <lane id="B1B2_0" index="0" speed="13.89" length="102.60" shape="208.00,213.60 208.00,300.20"/>
    </edge>
    <edge id="B1B2.101.00" from="B1B2.101.00" to="B2" priority="-1" shape="200.00,304.20 200.00,403.20">
        <lane id="B1B2.101.00_0" index="0" speed="13.89" length="100.60" shape="208.00,308.20 208.00,392.80"/>
        <lane id="B1B2.101.00_1" index="1" speed="13.89" length="100.60" shape="204.80,308.20 204.80,392.80"/>
        <lane id="B1B2.101.00_2" index="2" speed="13.89" length="100.60" shape="201.60,308.20 201.60,392.80"/>
    </edge>
    <edge id="B1C1" from="B1" to="B1C1.101.00" priority="-1" shape="203.20,200.00 304.20,200.00">
        <lane id="B1C1_0" index="0" speed="13.89" length="102.60" shape="213.60,198.40 300.20,198.40"/>
    </edge>
    <edge id="B1C1.101.00" from="B1C1.101.00" to="C1" priority="-1" shape="304.20,206.40 403.20,206.40">
        <lane id="B1C1.101.00_0" index="0" speed="13.89" length="100.60" shape="308.20,198.40 392.80,198.40"/>
        <lane id="B1C1.101.00_1" index="1" speed="13.89" length="100.60" shape="308.20,201.60 392.80,201.60"/>
        <lane id="B1C1.101.00_2" index="2" speed="13.89" length="100.60" shape="308.20,204.80 392.80,204.80"/>
    </edge>
    <edge id="B2A2" from="B2" to="A2" priority="-1" shape="203.20,406.40 3.20,406.40">
        <lane id="B2A2_0" index="0" speed="13.89" length="201.24" shape="192.80,408.00 9.60,408.00"/>
    </edge>
    <edge id="B2B1" from="B2" to="B2B1.101.00" priority="-1" shape="200.00,403.20 200.00,302.20">
        <lane id="B2B1_0" index="0" speed="13.89" length="102.60" shape="198.40,392.80 198.40,306.20"/>
    </edge>
    <edge id="B2B1.101.00" from="B2B1.101.00" to="B1" priority="-1" shape="206.40,302.20 206.40,203.20">
        <lane id="B2B1.101.00_0" index="0" speed="13.89" length="100.60" shape="198.40,298.20 198.40,213.60"/>
        <lane id="B2B1.101.00_1" index="1" speed="13.89" length="100.60" shape="201.60,298.20 201.60,213.60"/>
        <lane id="B2B1.101.00_2" index="2" speed="13.89" length="100.60" shape="204.80,298.20 204.80,213.60"/>
    </edge>
    <edge id="B2C2" from="B2" to="C2" priority="-1" shape="203.20,400.00 403.20,400.00">
        <lane id="B2C2_0" index="0" speed="13.89" length="201.24" shape="213.60,398.40 396.80,398.40"/>
    </edge>
    <edge id="C0B0" from="C0" to="C0B0.101.00" priority="-1" shape="403.20,6.40 302.20,6.40">
        <lane id="C0B0_0" index="0" speed="13.89" length="102.88" shape="396.80,8.00 306.20,8.00"/>
    </edge>
    <edge id="C0B0.101.00" from="C0B0.101.00" to="B0" priority="-1" shape="302.20,0.00 203.20,0.00">
        <lane id="C0B0.101.00_0" index="0" speed="13.89" length="100.60" shape="298.20,8.00 213.60,8.00"/>
        <lane id="C0B0.101.00_1" index="1" speed="13.89" length="100.60" shape="298.20,4.80 213.60,4.80"/>
        <lane id="C0B0.101.00_2" index="2" speed="13.89" length="100.60" shape="298.20,1.60 213.60,1.60"/>
    </edge>
    <edge id="C0C1" from="C0" to="C0C1.101.00" priority="-1" shape="406.40,3.20 406.40,104.20">
        <lane id="C0C1_0" index="0" speed="13.89" length="102.88" shape="408.00,9.60 408.00,100.20"/>
    </edge>
    <edge id="C0C1.101.00" from="C0C1.101.00" to="C1" priority="-1" shape="400.00,104.20 400.00,203.20">
        <lane id="C0C1.101.00_0" index="0" speed="13.89" length="100.60" shape="408.00,108.20 408.00,192.80"/>
        <lane id="C0C1.101.00_1" index="1" speed="13.89" length="100.60" shape="404.80,108.20 404.80,192.80"/>
        <lane id="C0C1.101.00_2" index="2" speed="13.89" length="100.60" shape="401.60,108.20 401.60,192.80"/>
    </edge>
    <edge id="C1B1" from="C1" to="C1B1.101.00" priority="-1" shape="403.20,206.40 302.20,206.40">
        <lane id="C1B1_0" index="0" speed="13.89" length="102.60" shape="392.80,208.00 306.20,208.00"/>
    </edge>
    <edge id="C1B1.101.00" from="C1B1.101.00" to="B1" priority="-1" shape="302.20,200.00 203.20,200.00">
        <lane id="C1B1.101.00_0" index="0" speed="13.89" length="100.60" shape="298.20,208.00 213.60,208.00"/>
        <lane id="C1B1.101.00_1" index="1" speed="13.89" length="100.60" shape="298.20,204.80 213.60,204.80"/>
        <lane id="C1B1.101.00_2" index="2" speed="13.89" length="100.60" shape="298.20,201.60 213.60,201.60"/>
    </edge>
    <edge id="C1C0" from="C1" to="C0" priority="-1" shape="400.00,203.20 400.00,3.20">
        <lane id="C1C0_0" index="0" speed="13.89" length="201.24" shape="398.40,192.80 398.40,9.60"/>
    </edge>
    <edge id="C1C2" from="C1" to="C2" priority="-1" shape="406.40,203.20 406.40,403.20">
        <lane id="C1C2_0" index="0" speed="13.89" length="201.24" shape="408.00,213.60 408.00,396.80"/>
    </edge>
    <edge id="C2B2" from="C2" to="C2B2.101.00" priority="-1" shape="403.20,406.40 302.20,406.40">
        <lane id="C2B2_0" index="0" speed="13.89" length="102.88" shape="396.80,408.00 306.20,408.00"/>
    </edge>
    <edge id="C2B2.101.00" from="C2B2.101.00" to="B2" priority="-1" shape="302.20,400.00 203.20,400.00">
        <lane id="C2B2.101.00_0" index="0" speed="13.89" length="100.60" shape="298.20,408.00 213.60,408.00"/>
        <lane id="C2B2.101.00_1" index="1" speed="13.89" length="100.60" shape="298.20,404.80 213.60,404.80"/>
        <lane id="C2B2.101.00_2" index="2" speed="13.89" length="100.60" shape="298.20,401.60 213.60,401.60"/>
    </edge>
    <edge id="C2C1" from="C2" to="C2C1.101.00" priority="-1" shape="400.00,403.20 400.00,302.20">
        <lane id="C2C1_0" index="0" speed="13.89" length="102.88" shape="398.40,396.80 398.40,306.20"/>
    </edge>
    <edge id="C2C1.101.00" from="C2C1.101.00" to="C1" priority="-1" shape="406.40,302.20 406.40,203.20">
        <lane id="C2C1.101.00_0" index="0" speed="13.89" length="100.60" shape="398.40,298.20 398.40,213.60"/>
        <lane id="C2C1.101.00_1" index="1" speed="13.89" length="100.60" shape="401.60,298.20 401.60,213.60"/>
        <lane id="C2C1.101.00_2" index="2" speed="13.89" length="100.60" shape="404.80,298.20 404.80,213.60"/>
    </edge>

    <tlLogic id="A0" type="static" programID="0" offset="0">
        <phase duration="42" state="GG"/>
        <phase duration="3"  state="yy"/>
        <phase duration="42" state="GG"/>
        <phase duration="3"  state="yy"/>
    </tlLogic>
    <tlLogic id="A1" type="static" programID="0" offset="0">
        <phase duration="38" state="GgrrGG"/>
        <phase duration="3"  state="ygrryy"/>
        <phase duration="6"  state="GGrrrr"/>
        <phase duration="3"  state="yyrrrr"/>
        <phase duration="37" state="rrGGGr"/>
        <phase duration="3"  state="rryyyr"/>
    </tlLogic>
    <tlLogic id="A2" type="static" programID="0" offset="0">
        <phase duration="42" state="GG"/>
        <phase duration="3"  state="yy"/>
        <phase duration="42" state="GG"/>
        <phase duration="3"  state="yy"/>
    </tlLogic>
    <tlLogic id="B0" type="static" programID="0" offset="0">
        <phase duration="38" state="rrGGGg"/>
        <phase duration="3"  state="rryyyg"/>
        <phase duration="6"  state="rrrrGG"/>
        <phase duration="3"  state="rrrryy"/>
        <phase duration="37" state="GGGrrr"/>
        <phase duration="3"  state="yyyrrr"/>
    </tlLogic>
    <tlLogic id="B1" type="static" programID="0" offset="0">
        <phase duration="33" state="GGgrrrGGgrrr"/>
        <phase duration="3"  state="yygrrryygrrr"/>
        <phase duration="6"  state="rrGrrrrrGrrr"/>
        <phase duration="3"  state="rryrrrrryrrr"/>
        <phase duration="33" state="rrrGGgrrrGGg"/>
        <phase duration="3"  state="rrryygrrryyg"/>
        <phase duration="6"  state="rrrrrGrrrrrG"/>
        <phase duration="3"  state="rrrrryrrrrry"/>
    </tlLogic>
    <tlLogic id="B2" type="static" programID="0" offset="0">
        <phase duration="38" state="GgrrGG"/>
        <phase duration="3"  state="ygrryy"/>
        <phase duration="6"  state="GGrrrr"/>
        <phase duration="3"  state="yyrrrr"/>
        <phase duration="37" state="rrGGGr"/>
        <phase duration="3"  state="rryyyr"/>
    </tlLogic>
    <tlLogic id="C0" type="static" programID="0" offset="0">
        <phase duration="42" state="GG"/>
        <phase duration="3"  state="yy"/>
        <phase duration="42" state="GG"/>
        <phase duration="3"  state="yy"/>
    </tlLogic>
    <tlLogic id="C1" type="static" programID="0" offset="0">
        <phase duration="38" state="GGGgrr"/>
        <phase duration="3"  state="yyygrr"/>
        <phase duration="6"  state="rrGGrr"/>
        <phase duration="3"  state="rryyrr"/>
        <phase duration="37" state="GrrrGG"/>
        <phase duration="3"  state="yrrryy"/>
    </tlLogic>
    <tlLogic id="C2" type="static" programID="0" offset="0">
        <phase duration="42" state="GG"/>
        <phase duration="3"  state="yy"/>
        <phase duration="42" state="GG"/>
        <phase duration="3"  state="yy"/>
    </tlLogic>

    <junction id="A0" type="traffic_light" x="3.20" y="3.20" incLanes="A1A0_0 B0A0_0" intLanes="" shape="-3.20,9.60 9.60,9.60 9.60,-3.20 5.69,-2.84 2.49,-1.78 -0.00,-0.00 -1.78,2.49 -2.84,5.69">
        <request index="0" response="00" foes="00"/>
        <request index="1" response="00" foes="00"/>
    </junction>
    <junction id="A0A1.101.00" type="priority" x="3.20" y="104.20" incLanes="A0A1_0" intLanes="" shape="0.00,108.20 9.60,108.20 9.60,100.20 6.40,100.20 5.93,102.22 4.74,103.41 1.66,104.99 0.47,106.18">
        <request index="0" response="000" foes="000"/>
        <request index="1" response="000" foes="000"/>
        <request index="2" response="000" foes="000"/>
    </junction>
    <junction id="A0B0.101.00" type="priority" x="104.20" y="3.20" incLanes="A0B0_0" intLanes="" shape="108.20,6.40 108.20,-3.20 100.20,-3.20 100.20,0.00 102.22,0.47 103.41,1.66 104.99,4.74 106.18,5.93">
        <request index="0" response="000" foes="000"/>
        <request index="1" response="000" foes="000"/>
        <request index="2" response="000" foes="000"/>
    </junction>
    <junction id="A1" type="traffic_light" x="3.20" y="203.20" incLanes="A2A1.101.00_0 A2A1.101.00_1 A2A1.101.00_2 B1A1.101.00_0 B1A1.101.00_1 B1A1.101.00_2 A0A1.101.00_0 A0A1.101.00_1 A0A1.101.00_2" intLanes="" shape="-3.20,213.60 9.60,213.60 10.04,211.38 10.60,210.60 11.38,210.04 12.38,209.71 13.60,209.60 13.60,196.80 11.38,196.36 10.60,195.80 10.04,195.02 9.71,194.02 9.60,192.80 -3.20,192.80">
        <request index="0" response="000000" foes="001000"/>
        <request index="1" response="110000" foes="111000"/>
        <request index="2" response="100000" foes="100000"/>
        <request index="3" response="100011" foes="100011"/>
        <request index="4" response="000000" foes="000010"/>
        <request index="5" response="000000" foes="001110"/>
    </junction>
    <junction id="A1B1.101.00" type="priority" x="104.20" y="203.20" incLanes="A1B1_0" intLanes="" shape="108.20,206.40 108.20,196.80 100.20,196.80 100.20,200.00 102.22,200.47 103.41,201.66 104.99,204.74 106.18,205.93">
        <request index="0" response="000" foes="000"/>
        <request index="1" response="000" foes="000"/>
        <request index="2" response="000" foes="000"/>
    </junction>
    <junction id="A2" type="traffic_light" x="3.20" y="403.20" incLanes="B2A2_0 A1A2_0" intLanes="" shape="9.60,409.60 9.60,396.80 -3.20,396.80 -2.84,400.71 -1.78,403.91 -0.00,406.40 2.49,408.18 5.69,409.24">
        <request index="0" response="00" foes="00"/>
        <request index="1" response="00" foes="00"/>
    </junction>
    <junction id="A2A1.101.00" type="priority" x="3.20" y="302.20" incLanes="A2A1_0" intLanes="" shape="-3.20,306.20 0.00,306.20 0.47,304.18 1.66,302.99 4.74,301.41 5.93,300.22 6.40,298.20 -3.20,298.20">
        <request index="0" response="000" foes="000"/>
        <request index="1" response="000" foes="000"/>
        <request index="2" response="000" foes="000"/>
    </junction>
    <junction id="A2B2.101.00" type="priority" x="104.20" y="403.20" incLanes="A2B2_0" intLanes="" shape="108.20,406.40 108.20,396.80 100.20,396.80 100.20,400.00 102.22,400.47 103.41,401.66 104.99,404.74 106.18,405.93">
        <request index="0" response="000" foes="000"/>
        <request index="1" response="000" foes="000"/>
        <request index="2" response="000" foes="000"/>
    </junction>
    <junction id="B0" type="traffic_light" x="203.20" y="3.20" incLanes="B1B0.101.00_0 B1B0.101.00_1 B1B0.101.00_2 C0B0.101.00_0 C0B0.101.00_1 C0B0.101.00_2 A0B0.101.00_0 A0B0.101.00_1 A0B0.101.00_2" intLanes="" shape="196.80,13.60 209.60,13.60 210.04,11.38 210.60,10.60 211.38,10.04 212.38,9.71 213.60,9.60 213.60,-3.20 192.80,-3.20 192.80,9.60 195.02,10.04 195.80,10.60 196.36,11.38 196.69,12.38">
        <request index="0" response="001000" foes="001000"/>
        <request index="1" response="111000" foes="111000"/>
        <request index="2" response="000000" foes="100000"/>
        <request index="3" response="000000" foes="100011"/>
        <request index="4" response="000000" foes="000010"/>
        <request index="5" response="001100" foes="001110"/>
    </junction>
    <junction id="B0B1.101.00" type="priority" x="203.20" y="104.20" incLanes="B0B1_0" intLanes="" shape="200.00,108.20 209.60,108.20 209.60,100.20 206.40,100.20 205.93,102.22 204.74,103.41 201.66,104.99 200.47,106.18">
        <request index="0" response="000" foes="000"/>
        <request index="1" response="000" foes="000"/>
        <request index="2" response="000" foes="000"/>
    </junction>
    <junction id="B1" type="traffic_light" x="203.20" y="203.20" incLanes="B2B1.101.00_0 B2B1.101.00_1 B2B1.101.00_2 C1B1.101.00_0 C1B1.101.00_1 C1B1.101.00_2 B0B1.101.00_0 B0B1.101.00_1 B0B1.101.00_2 A1B1.101.00_0 A1B1.101.00_1 A1B1.101.00_2" intLanes="" shape="196.80,213.60 209.60,213.60 210.04,211.38 210.60,210.60 211.38,210.04 212.38,209.71 213.60,209.60 213.60,196.80 211.38,196.36 210.60,195.80 210.04,195.02 209.71,194.02 209.60,192.80 196.80,192.80 196.36,195.02 195.80,195.80 195.02,196.36 194.02,196.69 192.80,196.80 192.80,209.60 195.02,210.04 195.80,210.60 196.36,211.38 196.69,212.38">
        <request index="0"  response="000000000000" foes="000100010000"/>
        <request index="1"  response="000000000000" foes="111100110000"/>
        <request index="2"  response="000011000000" foes="110011110000"/>
        <request index="3"  response="000010000000" foes="100010000000"/>
        <request index="4"  response="000110000111" foes="100110000111"/>
        <request index="5"  response="011110000110" foes="011110000110"/>
        <request index="6"  response="000000000000" foes="010000000100"/>
        <request index="7"  response="000000000000" foes="110000111100"/>
        <request index="8"  response="000000000011" foes="110000110011"/>
        <request index="9"  response="000000000010" foes="000000100010"/>
        <request index="10" response="000111000110" foes="000111100110"/>
        <request index="11" response="000110011110" foes="000110011110"/>
    </junction>
    <junction id="B1A1.101.00" type="priority" x="102.20" y="203.20" incLanes="B1A1_0" intLanes="" shape="106.20,209.60 106.20,206.40 104.18,205.93 102.99,204.74 101.41,201.66 100.22,200.47 98.20,200.00 98.20,209.60">
        <request index="0" response="000" foes="000"/>
        <request index="1" response="000" foes="000"/>
        <request index="2" response="000" foes="000"/>
    </junction>
    <junction id="B1B0.101.00" type="priority" x="203.20" y="102.20" incLanes="B1B0_0" intLanes="" shape="196.80,106.20 200.00,106.20 200.47,104.18 201.66,102.99 204.74,101.41 205.93,100.22 206.40,98.20 196.80,98.20">
        <request index="0" response="000" foes="000"/>
        <request index="1" response="000" foes="000"/>
        <request index="2" response="000" foes="000"/>
    </junction>
    <junction id="B1B2.101.00" type="priority" x="203.20" y="304.20" incLanes="B1B2_0" intLanes="" shape="200.00,308.20 209.60,308.20 209.60,300.20 206.40,300.20 205.93,302.22 204.74,303.41 201.66,304.99 200.47,306.18">
        <request index="0" response="000" foes="000"/>
        <request index="1" response="000" foes="000"/>
        <request index="2" response="000" foes="000"/>
    </junction>
    <junction id="B1C1.101.00" type="priority" x="304.20" y="203.20" incLanes="B1C1_0" intLanes="" shape="308.20,206.40 308.20,196.80 300.20,196.80 300.20,200.00 302.22,200.47 303.41,201.66 304.99,204.74 306.18,205.93">
        <request index="0" response="000" foes="000"/>
        <request index="1" response="000" foes="000"/>
        <request index="2" response="000" foes="000"/>
    </junction>
    <junction id="B2" type="traffic_light" x="203.20" y="403.20" incLanes="C2B2.101.00_0 C2B2.101.00_1 C2B2.101.00_2 B1B2.101.00_0 B1B2.101.00_1 B1B2.101.00_2 A2B2.101.00_0 A2B2.101.00_1 A2B2.101.00_2" intLanes="" shape="213.60,409.60 213.60,396.80 211.38,396.36 210.60,395.80 210.04,395.02 209.71,394.02 209.60,392.80 196.80,392.80 196.36,395.02 195.80,395.80 195.02,396.36 194.02,396.69 192.80,396.80 192.80,409.60">
        <request index="0" response="000000" foes="001000"/>
        <request index="1" response="110000" foes="111000"/>
        <request index="2" response="100000" foes="100000"/>
        <request index="3" response="100011" foes="100011"/>
        <request index="4" response="000000" foes="000010"/>
        <request index="5" response="000000" foes="001110"/>
    </junction>
    <junction id="B2B1.101.00" type="priority" x="203.20" y="302.20" incLanes="B2B1_0" intLanes="" shape="196.80,306.20 200.00,306.20 200.47,304.18 201.66,302.99 204.74,301.41 205.93,300.22 206.40,298.20 196.80,298.20">
        <request index="0" response="000" foes="000"/>
        <request index="1" response="000" foes="000"/>
        <request index="2" response="000" foes="000"/>
    </junction>
    <junction id="C0" type="traffic_light" x="403.20" y="3.20" incLanes="C1C0_0 B0C0_0" intLanes="" shape="396.80,9.60 409.60,9.60 409.24,5.69 408.18,2.49 406.40,-0.00 403.91,-1.78 400.71,-2.84 396.80,-3.20">
        <request index="0" response="00" foes="00"/>
        <request index="1" response="00" foes="00"/>
    </junction>
    <junction id="C0B0.101.00" type="priority" x="302.20" y="3.20" incLanes="C0B0_0" intLanes="" shape="306.20,9.60 306.20,6.40 304.18,5.93 302.99,4.74 301.41,1.66 300.22,0.47 298.20,0.00 298.20,9.60">
        <request index="0" response="000" foes="000"/>
        <request index="1" response="000" foes="000"/>
        <request index="2" response="000" foes="000"/>
    </junction>
    <junction id="C0C1.101.00" type="priority" x="403.20" y="104.20" incLanes="C0C1_0" intLanes="" shape="400.00,108.20 409.60,108.20 409.60,100.20 406.40,100.20 405.93,102.22 404.74,103.41 401.66,104.99 400.47,106.18">
        <request index="0" response="000" foes="000"/>
        <request index="1" response="000" foes="000"/>
        <request index="2" response="000" foes="000"/>
    </junction>
    <junction id="C1" type="traffic_light" x="403.20" y="203.20" incLanes="C2C1.101.00_0 C2C1.101.00_1 C2C1.101.00_2 C0C1.101.00_0 C0C1.101.00_1 C0C1.101.00_2 B1C1.101.00_0 B1C1.101.00_1 B1C1.101.00_2" intLanes="" shape="396.80,213.60 409.60,213.60 409.60,192.80 396.80,192.80 396.36,195.02 395.80,195.80 395.02,196.36 394.02,196.69 392.80,196.80 392.80,209.60 395.02,210.04 395.80,210.60 396.36,211.38 396.69,212.38">
        <request index="0" response="000000" foes="001000"/>
        <request index="1" response="000000" foes="111000"/>
        <request index="2" response="000000" foes="100000"/>
        <request index="3" response="000011" foes="100011"/>
        <request index="4" response="000010" foes="000010"/>
        <request index="5" response="001110" foes="001110"/>
    </junction>
    <junction id="C1B1.101.00" type="priority" x="302.20" y="203.20" incLanes="C1B1_0" intLanes="" shape="306.20,209.60 306.20,206.40 304.18,205.93 302.99,204.74 301.41,201.66 300.22,200.47 298.20,200.00 298.20,209.60">
        <request index="0" response="000" foes="000"/>
        <request index="1" response="000" foes="000"/>
        <request index="2" response="000" foes="000"/>
    </junction>
    <junction id="C2" type="traffic_light" x="403.20" y="403.20" incLanes="C1C2_0 B2C2_0" intLanes="" shape="409.60,396.80 396.80,396.80 396.80,409.60 400.71,409.24 403.91,408.18 406.40,406.40 408.18,403.91 409.24,400.71">
        <request index="0" response="00" foes="00"/>
        <request index="1" response="00" foes="00"/>
    </junction>
    <junction id="C2B2.101.00" type="priority" x="302.20" y="403.20" incLanes="C2B2_0" intLanes="" shape="306.20,409.60 306.20,406.40 304.18,405.93 302.99,404.74 301.41,401.66 300.22,400.47 298.20,400.00 298.20,409.60">
        <request index="0" response="000" foes="000"/>
        <request index="1" response="000" foes="000"/>
        <request index="2" response="000" foes="000"/>
    </junction>
    <junction id="C2C1.101.00" type="priority" x="403.20" y="302.20" incLanes="C2C1_0" intLanes="" shape="396.80,306.20 400.00,306.20 400.47,304.18 401.66,302.99 404.74,301.41 405.93,300.22 406.40,298.20 396.80,298.20">
        <request index="0" response="000" foes="000"/>
        <request index="1" response="000" foes="000"/>
        <request index="2" response="000" foes="000"/>
    </junction>

    <connection from="A0A1" to="A0A1.101.00" fromLane="0" toLane="0" dir="s" state="M"/>
    <connection from="A0A1" to="A0A1.101.00" fromLane="0" toLane="1" dir="s" state="M"/>
    <connection from="A0A1" to="A0A1.101.00" fromLane="0" toLane="2" dir="s" state="M"/>
    <connection from="A0A1.101.00" to="A1B1" fromLane="0" toLane="0" tl="A1" linkIndex="4" dir="r" state="O"/>
    <connection from="A0A1.101.00" to="A1A2" fromLane="1" toLane="0" tl="A1" linkIndex="5" dir="s" state="O"/>
    <connection from="A0B0" to="A0B0.101.00" fromLane="0" toLane="0" dir="s" state="M"/>
    <connection from="A0B0" to="A0B0.101.00" fromLane="0" toLane="1" dir="s" state="M"/>
    <connection from="A0B0" to="A0B0.101.00" fromLane="0" toLane="2" dir="s" state="M"/>
    <connection from="A0B0.101.00" to="B0C0" fromLane="0" toLane="0" tl="B0" linkIndex="4" dir="s" state="O"/>
    <connection from="A0B0.101.00" to="B0B1" fromLane="2" toLane="0" tl="B0" linkIndex="5" dir="l" state="o"/>
    <connection from="A1A0" to="A0B0" fromLane="0" toLane="0" tl="A0" linkIndex="0" dir="l" state="O"/>
    <connection from="A1A2" to="A2B2" fromLane="0" toLane="0" tl="A2" linkIndex="1" dir="r" state="O"/>
    <connection from="A1B1" to="A1B1.101.00" fromLane="0" toLane="0" dir="s" state="M"/>
    <connection from="A1B1" to="A1B1.101.00" fromLane="0" toLane="1" dir="s" state="M"/>