<?xml version="1.0" encoding="UTF-8"?>

<!-- generated on 2021-10-30 20:52:39 by Eclipse SUMO netgenerate Version 1.10.0
<configuration xmlns:xsi="http://www.w3.org/2001/XMLSchema-instance" xsi:noNamespaceSchemaLocation="http://sumo.dlr.de/xsd/netgenerateConfiguration.xsd">

    <grid_network>
        <grid value="true"/>
        <grid.number value="5"/>
        <grid.length value="200"/>
    </grid_network>

    <output>
        <output-file value="grid.net.xml"/>
    </output>

    <processing>
        <turn-lanes value="2"/>
        <turn-lanes.length value="99"/>
    </processing>

    <building_defaults>
        <default.lanenumber value="1"/>
        <default-junction-type value="traffic_light"/>
    </building_defaults>

    <tls_building>
        <tls.cycle.time value="90"/>
    </tls_building>

    <junctions>
        <no-internal-links value="true"/>
        <no-turnarounds value="true"/>
    </junctions>

</configuration>
-->

<net version="1.9" junctionCornerDetail="5" limitTurnSpeed="5.50" xmlns:xsi="http://www.w3.org/2001/XMLSchema-instance" xsi:noNamespaceSchemaLocation="http://sumo.dlr.de/xsd/net_file.xsd">

    <location netOffset="3.20,3.20" convBoundary="0.00,0.00,806.40,806.40" origBoundary="0.00,0.00,800.00,800.00" projParameter="!"/>

    <edge id="A0A1" from="A0" to="A0A1.101.00" priority="-1" shape="6.40,3.20 6.40,104.20">
        <lane id="A0A1_0" index="0" speed="13.89" length="102.88" shape="8.00,9.60 8.00,100.20"/>
    </edge>
    <edge id="A0A1.101.00" from="A0A1.101.00" to="A1" priority="-1" shape="0.00,104.20 0.00,203.20">
        <lane id="A0A1.101.00_0" index="0" speed="13.89" length="100.60" shape="8.00,108.20 8.00,192.80"/>
        <lane id="A0A1.101.00_1" index="1" speed="13.89" length="100.60" shape="4.80,108.20 4.80,192.80"/>
        <lane id="A0A1.101.00_2" index="2" speed="13.89" length="100.60" shape="1.60,108.20 1.60,192.80"/>
    </edge>
    <edge id="A0B0" from="A0" to="A0B0.101.00" priority="-1" shape="3.20,0.00 104.20,0.00">
        <lane id="A0B0_0" index="0" speed="13.89" length="102.88" shape="9.60,-1.60 100.20,-1.60"/>
    </edge>
    <edge id="A0B0.101.00" from="A0B0.101.00" to="B0" priority="-1" shape="104.20,6.40 203.20,6.40">
        <lane id="A0B0.101.00_0" index="0" speed="13.89" length="100.60" shape="108.20,-1.60 192.80,-1.60"/>
        <lane id="A0B0.101.00_1" index="1" speed="13.89" length="100.60" shape="108.20,1.60 192.80,1.60"/>
        <lane id="A0B0.101.00_2" index="2" speed="13.89" length="100.60" shape="108.20,4.80 192.80,4.80"/>
    </edge>
    <edge id="A1A0" from="A1" to="A0" priority="-1" shape="0.00,203.20 0.00,3.20">
        <lane id="A1A0_0" index="0" speed="13.89" length="201.24" shape="-1.60,192.80 -1.60,9.60"/>
    </edge>
    <edge id="A1A2" from="A1" to="A1A2.101.00" priority="-1" shape="6.40,203.20 6.40,304.20">
        <lane id="A1A2_0" index="0" speed="13.89" length="102.60" shape="8.00,213.60 8.00,300.20"/>
    </edge>
    <edge id="A1A2.101.00" from="A1A2.101.00" to="A2" priority="-1" shape="0.00,304.20 0.00,403.20">
        <lane id="A1A2.101.00_0" index="0" speed="13.89" length="100.60" shape="8.00,308.20 8.00,392.80"/>
        <lane id="A1A2.101.00_1" index="1" speed="13.89" length="100.60" shape="4.80,308.20 4.80,392.80"/>
        <lane id="A1A2.101.00_2" index="2" speed="13.89" length="100.60" shape="1.60,308.20 1.60,392.80"/>
    </edge>
    <edge id="A1B1" from="A1" to="A1B1.101.00" priority="-1" shape="3.20,200.00 104.20,200.00">
        <lane id="A1B1_0" index="0" speed="13.89" length="102.60" shape="13.60,198.40 100.20,198.40"/>
    </edge>
    <edge id="A1B1.101.00" from="A1B1.101.00" to="B1" priority="-1" shape="104.20,206.40 203.20,206.40">
        <lane id="A1B1.101.00_0" index="0" speed="13.89" length="100.60" shape="108.20,198.40 192.80,198.40"/>
        <lane id="A1B1.101.00_1" index="1" speed="13.89" length="100.60" shape="108.20,201.60 192.80,201.60"/>
        <lane id="A1B1.101.00_2" index="2" speed="13.89" length="100.60" shape="108.20,204.80 192.80,204.80"/>
    </edge>
    <edge id="A2A1" from="A2" to="A2A1.101.00" priority="-1" shape="0.00,403.20 0.00,302.20">
        <lane id="A2A1_0" index="0" speed="13.89" length="102.60" shape="-1.60,392.80 -1.60,306.20"/>
    </edge>
    <edge id="A2A1.101.00" from="A2A1.101.00" to="A1" priority="-1" shape="6.40,302.20 6.40,203.20">
        <lane id="A2A1.101.00_0" index="0" speed="13.89" length="100.60" shape="-1.60,298.20 -1.60,213.60"/>
        <lane id="A2A1.101.00_1" index="1" speed="13.89" length="100.60" shape="1.60,298.20 1.60,213.60"/>
        <lane id="A2A1.101.00_2" index="2" speed="13.89" length="100.60" shape="4.80,298.20 4.80,213.60"/>
    </edge>
    <edge id="A2A3" from="A2" to="A2A3.101.00" priority="-1" shape="6.40,403.20 6.40,504.20">
        <lane id="A2A3_0" index="0" speed="13.89" length="102.60" shape="8.00,413.60 8.00,500.20"/>
    </edge>
    <edge id="A2A3.101.00" from="A2A3.101.00" to="A3" priority="-1" shape="0.00,504.20 0.00,603.20">
        <lane id="A2A3.101.00_0" index="0" speed="13.89" length="100.60" shape="8.00,508.20 8.00,592.80"/>
        <lane id="A2A3.101.00_1" index="1" speed="13.89" length="100.60" shape="4.80,508.20 4.80,592.80"/>
        <lane id="A2A3.101.00_2" index="2" speed="13.89" length="100.60" shape="1.60,508.20 1.60,592.80"/>
    </edge>
    <edge id="A2B2" from="A2" to="A2B2.101.00" priority="-1" shape="3.20,400.00 104.20,400.00">
        <lane id="A2B2_0" index="0" speed="13.89" length="102.60" shape="13.60,398.40 100.20,398.40"/>
    </edge>
    <edge id="A2B2.101.00" from="A2B2.101.00" to="B2" priority="-1" shape="104.20,406.40 203.20,406.40">
        <lane id="A2B2.101.00_0" index="0" speed="13.89" length="100.60" shape="108.20,398.40 192.80,398.40"/>
        <lane id="A2B2.101.00_1" index="1" speed="13.89" length="100.60" shape="108.20,401.60 192.80,401.60"/>
        <lane id="A2B2.101.00_2" index="2" speed="13.89" length="100.60" shape="108.20,404.80 192.80,404.80"/>
    </edge>
    <edge id="A3A2" from="A3" to="A3A2.101.00" priority="-1" shape="0.00,603.20 0.00,502.20">
        <lane id="A3A2_0" index="0" speed="13.89" length="102.60" shape="-1.60,592.80 -1.60,506.20"/>
    </edge>
    <edge id="A3A2.101.00" from="A3A2.101.00" to="A2" priority="-1" shape="6.40,502.20 6.40,403.20">
        <lane id="A3A2.101.00_0" index="0" speed="13.89" length="100.60" shape="-1.60,498.20 -1.60,413.60"/>
        <lane id="A3A2.101.00_1" index="1" speed="13.89" length="100.60" shape="1.60,498.20 1.60,413.60"/>
        <lane id="A3A2.101.00_2" index="2" speed="13.89" length="100.60" shape="4.80,498.20 4.80,413.60"/>
    </edge>
    <edge id="A3A4" from="A3" to="A4" priority="-1" shape="6.40,603.20 6.40,803.20">
        <lane id="A3A4_0" index="0" speed="13.89" length="201.24" shape="8.00,613.60 8.00,796.80"/>
    </edge>
    <edge id="A3B3" from="A3" to="A3B3.101.00" priority="-1" shape="3.20,600.00 104.20,600.00">
        <lane id="A3B3_0" index="0" speed="13.89" length="102.60" shape="13.60,598.40 100.20,598.40"/>
    </edge>
    <edge id="A3B3.101.00" from="A3B3.101.00" to="B3" priority="-1" shape="104.20,606.40 203.20,606.40">
        <lane id="A3B3.101.00_0" index="0" speed="13.89" length="100.60" shape="108.20,598.40 192.80,598.40"/>
        <lane id="A3B3.101.00_1" index="1" speed="13.89" length="100.60" shape="108.20,601.60 192.80,601.60"/>
        <lane id="A3B3.101.00_2" index="2" speed="13.89" length="100.60" shape="108.20,604.80 192.80,604.80"/>
    </edge>
    <edge id="A4A3" from="A4" to="A4A3.101.00" priority="-1" shape="0.00,803.20 0.00,702.20">
        <lane id="A4A3_0" index="0" speed="13.89" length="102.88" shape="-1.60,796.80 -1.60,706.20"/>
    </edge>
    <edge id="A4A3.101.00" from="A4A3.101.00" to="A3" priority="-1" shape="6.40,702.20 6.40,603.20">
        <lane id="A4A3.101.00_0" index="0" speed="13.89" length="100.60" shape="-1.60,698.20 -1.60,613.60"/>
        <lane id="A4A3.101.00_1" index="1" speed="13.89" length="100.60" shape="1.60,698.20 1.60,613.60"/>
        <lane id="A4A3.101.00_2" index="2" speed="13.89" length="100.60" shape="4.80,698.20 4.80,613.60"/>
    </edge>
    <edge id="A4B4" from="A4" to="A4B4.101.00" priority="-1" shape="3.20,800.00 104.20,800.00">
        <lane id="A4B4_0" index="0" speed="13.89" length="102.88" shape="9.60,798.40 100.20,798.40"/>
    </edge>
    <edge id="A4B4.101.00" from="A4B4.101.00" to="B4" priority="-1" shape="104.20,806.40 203.20,806.40">
        <lane id="A4B4.101.00_0" index="0" speed="13.89" length="100.60" shape="108.20,798.40 192.80,798.40"/>
        <lane id="A4B4.101.00_1" index="1" speed="13.89" length="100.60" shape="108.20,801.60 192.80,801.60"/>
        <lane id="A4B4.101.00_2" index="2" speed="13.89" length="100.60" shape="108.20,804.80 192.80,804.80"/>
    </edge>
    <edge id="B0A0" from="B0" to="A0" priority="-1" shape="203.20,6.40 3.20,6.40">
        <lane id="B0A0_0" index="0" speed="13.89" length="201.24" shape="192.80,8.00 9.60,8.00"/>
    </edge>
    <edge id="B0B1" from="B0" to="B0B1.101.00" priority="-1" shape="206.40,3.20 206.40,104.20">
        <lane id="B0B1_0" index="0" speed="13.89" length="102.60" shape="208.00,13.60 208.00,100.20"/>
    </edge>
    <edge id="B0B1.101.00" from="B0B1.101.00" to="B1" priority="-1" shape="200.00,104.20 200.00,203.20">
        <lane id="B0B1.101.00_0" index="0" speed="13.89" length="100.60" shape="208.00,108.20 208.00,192.80"/>
        <lane id="B0B1.101.00_1" index="1" speed="13.89" length="100.60" shape="204.80,108.20 204.80,192.80"/>
        <lane id="B0B1.101.00_2" index="2" speed="13.89" length="100.60" shape="201.60,108.20 201.60,192.80"/>
    </edge>
    <edge id="B0C0" from="B0" to="B0C0.101.00" priority="-1" shape="203.20,0.00 304.20,0.00">
        <lane id="B0C0_0" index="0" speed="13.89" length="102.60" shape="213.60,-1.60 300.20,-1.60"/>
    </edge>
    <edge id="B0C0.101.00" from="B0C0.101.00" to="C0" priority="-1" shape="304.20,6.40 403.20,6.40">
        <lane id="B0C0.101.00_0" index="0" speed="13.89" length="100.60" shape="308.20,-1.60 392.80,-1.60"/>
        <lane id="B0C0.101.00_1" index="1" speed="13.89" length="100.60" shape="308.20,1.60 392.80,1.60"/>
        <lane id="B0C0.101.00_2" index="2" speed="13.89" length="100.60" shape="308.20,4.80 392.80,4.80"/>
    </edge>
    <edge id="B1A1" from="B1" to="B1A1.101.00" priority="-1" shape="203.20,206.40 102.20,206.40">
        <lane id="B1A1_0" index="0" speed="13.89" length="102.60" shape="192.80,208.00 106.20,208.00"/>
    </edge>
    <edge id="B1A1.101.00" from="B1A1.101.00" to="A1" priority="-1" shape="102.20,200.00 3.20,200.00">
        <lane id="B1A1.101.00_0" index="0" speed="13.89" length="100.60" shape="98.20,208.00 13.60,208.00"/>
        <lane id="B1A1.101.00_1" index="1" speed="13.89" length="100.60" shape="98.20,204.80 13.60,204.80"/>
        <lane id="B1A1.101.00_2" index="2" speed="13.89" length="100.60" shape="98.20,201.60 13.60,201.60"/>
    </edge>
    <edge id="B1B0" from="B1" to="B1B0.101.00" priority="-1" shape="200.00,203.20 200.00,102.20">
        <lane id="B1B0_0" index="0" speed="13.89" length="102.60" shape="198.40,192.80 198.40,106.20"/>
    </edge>
    <edge id="B1B0.101.00" from="B1B0.101.00" to="B0" priority="-1" shape="206.40,102.20 206.40,3.20">
        <lane id="B1B0.101.00_0" index="0" speed="13.89" length="100.60" shape="198.40,98.20 198.40,13.60"/>
        <lane id="B1B0.101.00_1" index="1" speed="13.89" length="100.60" shape="201.60,98.20 201.60,13.60"/>
        <lane id="B1B0.101.00_2" index="2" speed="13.89" length="100.60" shape="204.80,98.20 204.80,13.60"/>
    </edge>
    <edge id="B1B2" from="B1" to="B1B2.101.00" priority="-1" shape="206.40,203.20 206.40,304.20">
        <lane id="B1B2_0" index="0" speed="13.89" length="102.60" shape="208.00,213.60 208.00,300.20"/>
    </edge>
    <edge id="B1B2.101.00" from="B1B2.101.00" to="B2" priority="-1" shape="200.00,304.20 200.00,403.20">
        <lane id="B1B2.101.00_0" index="0" speed="13.89" length="100.60" shape="208.00,308.20 208.00,392.80"/>
        <lane id="B1B2.101.00_1" index="1" speed="13.89" length="100.60" shape="204.80,308.20 204.80,392.80"/>
        <lane id="B1B2.101.00_2" index="2" speed="13.89" length="100.60" shape="201.60,308.20 201.60,392.80"/>
    </edge>
    <edge id="B1C1" from="B1" to="B1C1.101.00" priority="-1" shape="203.20,200.00 304.20,200.00">
        <lane id="B1C1_0" index="0" speed="13.89" length="102.60" shape="213.60,198.40 300.20,198.40"/>
    </edge>
    <edge id="B1C1.101.00" from="B1C1.101.00" to="C1" priority="-1" shape="304.20,206.40 403.20,206.40">
        <lane id="B1C1.101.00_0" index="0" speed="13.89" length="100.60" shape="308.20,198.40 392.80,198.40"/>
        <lane id="B1C1.101.00_1" index="1" speed="13.89" length="100.60" shape="308.20,201.60 392.80,201.60"/>
        <lane id="B1C1.101.00_2" index="2" speed="13.89" length="100.60" shape="308.20,204.80 392.80,204.80"/>
    </edge>
    <edge id="B2A2" from="B2" to="B2A2.101.00" priority="-1" shape="203.20,406.40 102.20,406.40">
        <lane id="B2A2_0" index="0" speed="13.89" length="102.60" shape="192.80,408.00 106.20,408.00"/>
    </edge>
    <edge id="B2A2.101.00" from="B2A2.101.00" to="A2" priority="-1" shape="102.20,400.00 3.20,400.00">
        <lane id="B2A2.101.00_0" index="0" speed="13.89" length="100.60" shape="98.20,408.00 13.60,408.00"/>
        <lane id="B2A2.101.00_1" index="1" speed="13.89" length="100.60" shape="98.20,404.80 13.60,404.80"/>
        <lane id="B2A2.101.00_2" index="2" speed="13.89" length="100.60" shape="98.20,401.60 13.60,401.60"/>
    </edge>
    <edge id="B2B1" from="B2" to="B2B1.101.00" priority="-1" shape="200.00,403.20 200.00,302.20">
        <lane id="B2B1_0" index="0" speed="13.89" length="102.60" shape="198.40,392.80 198.40,306.20"/>
    </edge>
    <edge id="B2B1.101.00" from="B2B1.101.00" to="B1" priority="-1" shape="206.40,302.20 206.40,203.20">
        <lane id="B2B1.101.00_0" index="0" speed="13.89" length="100.60" shape="198.40,298.20 198.40,213.60"/>
        <lane id="B2B1.101.00_1" index="1" speed="13.89" length="100.60" shape="201.60,298.20 201.60,213.60"/>
        <lane id="B2B1.101.00_2" index="2" speed="13.89" length="100.60" shape="204.80,298.20 204.80,213.60"/>
    </edge>
    <edge id="B2B3" from="B2" to="B2B3.101.00" priority="-1" shape="206.40,403.20 206.40,504.20">
        <lane id="B2B3_0" index="0" speed="13.89" length="102.60" shape="208.00,413.60 208.00,500.20"/>
    </edge>
    <edge id="B2B3.101.00" from="B2B3.101.00" to="B3" priority="-1" shape="200.00,504.20 200.00,603.20">
        <lane id="B2B3.101.00_0" index="0" speed="13.89" length="100.60" shape="208.00,508.20 208.00,592.80"/>
        <lane id="B2B3.101.00_1" index="1" speed="13.89" length="100.60" shape="204.80,508.20 204.80,592.80"/>
        <lane id="B2B3.101.00_2" index="2" speed="13.89" length="100.60" shape="201.60,508.20 201.60,592.80"/>
    </edge>
    <edge id="B2C2" from="B2" to="B2C2.101.00" priority="-1" shape="203.20,400.00 304.20,400.00">
        <lane id="B2C2_0" index="0" speed="13.89" length="102.60" shape="213.60,398.40 300.20,398.40"/>
    </edge>
    <edge id="B2C2.101.00" from="B2C2.101.00" to="C2" priority="-1" shape="304.20,406.40 403.20,406.40">
        <lane id="B2C2.101.00_0" index="0" speed="13.89" length="100.60" shape="308.20,398.40 392.80,398.40"/>
        <lane id="B2C2.101.00_1" index="1" speed="13.89" length="100.60" shape="308.20,401.60 392.80,401.60"/>
        <lane id="B2C2.101.00_2" index="2" speed="13.89" length="100.60" shape="308.20,404.80 392.80,404.80"/>
    </edge>
    <edge id="B3A3" from="B3" to="B3A3.101.00" priority="-1" shape="203.20,606.40 102.20,606.40">
        <lane id="B3A3_0" index="0" speed="13.89" length="102.60" shape="192.80,608.00 106.20,608.00"/>
    </edge>
    <edge id="B3A3.101.00" from="B3A3.101.00" to="A3" priority="-1" shape="102.20,600.00 3.20,600.00">
        <lane id="B3A3.101.00_0" index="0" speed="13.89" length="100.60" shape="98.20,608.00 13.60,608.00"/>
        <lane id="B3A3.101.00_1" index="1" speed="13.89" length="100.60" shape="98.20,604.80 13.60,604.80"/>
        <lane id="B3A3.101.00_2" index="2" speed="13.89" length="100.60" shape="98.20,601.60 13.60,601.60"/>
    </edge>
    <edge id="B3B2" from="B3" to="B3B2.101.00" priority="-1" shape="200.00,603.20 200.00,502.20">
        <lane id="B3B2_0" index="0" speed="13.89" length="102.60" shape="198.40,592.80 198.40,506.20"/>
    </edge>
    <edge id="B3B2.101.00" from="B3B2.101.00" to="B2" priority="-1" shape="206.40,502.20 206.40,403.20">
        <lane id="B3B2.101.00_0" index="0" speed="13.89" length="100.60" shape="198.40,498.20 198.40,413.60"/>
        <lane id="B3B2.101.00_1" index="1" speed="13.89" length="100.60" shape="201.60,498.20 201.60,413.60"/>
        <lane id="B3B2.101.00_2" index="2" speed="13.89" length="100.60" shape="204.80,498.20 204.80,413.60"/>
    </edge>
    <edge id="B3B4" from="B3" to="B3B4.101.00" priority="-1" shape="206.40,603.20 206.40,704.20">
        <lane id="B3B4_0" index="0" speed="13.89" length="102.60" shape="208.00,613.60 208.00,700.20"/>
    </edge>
    <edge id="B3B4.101.00" from="B3B4.101.00" to="B4" priority="-1" shape="200.00,704.20 200.00,803.20">
        <lane id="B3B4.101.00_0" index="0" speed="13.89" length="100.60" shape="208.00,708.20 208.00,792.80"/>
        <lane id="B3B4.101.00_1" index="1" speed="13.89" length="100.60" shape="204.80,708.20 204.80,792.80"/>
        <lane id="B3B4.101.00_2" index="2" speed="13.89" length="100.60" shape="201.60,708.20 201.60,792.80"/>
    </edge>
    <edge id="B3C3" from="B3" to="B3C3.101.00" priority="-1" shape="203.20,600.00 304.20,600.00">
        <lane id="B3C3_0" index="0" speed="13.89" length="102.60" shape="213.60,598.40 300.20,598.40"/>
    </edge>
    <edge id="B3C3.101.00" from="B3C3.101.00" to="C3" priority="-1" shape="304.20,606.40 403.20,606.40">
        <lane id="B3C3.101.00_0" index="0" speed="13.89" length="100.60" shape="308.20,598.40 392.80,598.40"/>
        <lane id="B3C3.101.00_1" index="1" speed="13.89" length="100.60" shape="308.20,601.60 392.80,601.60"/>
        <lane id="B3C3.101.00_2" index="2" speed="13.89" length="100.60" shape="308.20,604.80 392.80,604.80"/>
    </edge>
    <edge id="B4A4" from="B4" to="A4" priority="-1" shape="203.20,806.40 3.20,806.40">
        <lane id="B4A4_0" index="0" speed="13.89" length="201.24" shape="192.80,808.00 9.60,808.00"/>
    </edge>
    <edge id="B4B3" from="B4" to="B4B3.101.00" priority="-1" shape="200.00,803.20 200.00,702.20">
        <lane id="B4B3_0" index="0" speed="13.89" length="102.60" shape="198.40,792.80 198.40,706.20"/>
    </edge>
    <edge id="B4B3.101.00" from="B4B3.101.00" to="B3" priority="-1" shape="206.40,702.20 206.40,603.20">
        <lane id="B4B3.101.00_0" index="0" speed="13.89" length="100.60" shape="198.40,698.20 198.40,613.60"/>
        <lane id="B4B3.101.00_1" index="1" speed="13.89" length="100.60" shape="201.60,698.20 201.60,613.60"/>
        <lane id="B4B3.101.00_2" index="2" speed="13.89" length="100.60" shape="204.80,698.20 204.80,613.60"/>
    </edge>
    <edge id="B4C4" from="B4" to="B4C4.101.00" priority="-1" shape="203.20,800.00 304.20,800.00">
        <lane id="B4C4_0" index="0" speed="13.89" length="102.60" shape="213.60,798.40 300.20,798.40"/>
    </edge>
    <edge id="B4C4.101.00" from="B4C4.101.00" to="C4" priority="-1" shape="304.20,806.40 403.20,806.40">
        <lane id="B4C4.101.00_0" index="0" speed="13.89" length="100.60" shape="308.20,798.40 392.80,798.40"/>
        <lane id="B4C4.101.00_1" index="1" speed="13.89" length="100.60" shape="308.20,801.60 392.80,801.60"/>
        <lane id="B4C4.101.00_2" index="2" speed="13.89" length="100.60" shape="308.20,804.80 392.80,804.80"/>
    </edge>
    <edge id="C0B0" from="C0" to="C0B0.101.00" priority="-1" shape="403.20,6.40 302.20,6.40">
        <lane id="C0B0_0" index="0" speed="13.89" length="102.60" shape="392.80,8.00 306.20,8.00"/>
    </edge>
    <edge id="C0B0.101.00" from="C0B0.101.00" to="B0" priority="-1" shape="302.20,0.00 203.20,0.00">
        <lane id="C0B0.101.00_0" index="0" speed="13.89" length="100.60" shape="298.20,8.00 213.60,8.00"/>
        <lane id="C0B0.101.00_1" index="1" speed="13.89" length="100.60" shape="298.20,4.80 213.60,4.80"/>
        <lane id="C0B0.101.00_2" index="2" speed="13.89" length="100.60" shape="298.20,1.60 213.60,1.60"/>
    </edge>
    <edge id="C0C1" from="C0" to="C0C1.101.00" priority="-1" shape="406.40,3.20 406.40,104.20">
        <lane id="C0C1_0" index="0" speed="13.89" length="102.60" shape="408.00,13.60 408.00,100.20"/>
    </edge>
    <edge id="C0C1.101.00" from="C0C1.101.00" to="C1" priority="-1" shape="400.00,104.20 400.00,203.20">
        <lane id="C0C1.101.00_0" index="0" speed="13.89" length="100.60" shape="408.00,108.20 408.00,192.80"/>
        <lane id="C0C1.101.00_1" index="1" speed="13.89" length="100.60" shape="404.80,108.20 404.80,192.80"/>
        <lane id="C0C1.101.00_2" index="2" speed="13.89" length="100.60" shape="401.60,108.20 401.60,192.80"/>
    </edge>
    <edge id="C0D0" from="C0" to="C0D0.101.00" priority="-1" shape="403.20,0.00 504.20,0.00">
        <lane id="C0D0_0" index="0" speed="13.89" length="102.60" shape="413.60,-1.60 500.20,-1.60"/>
    </edge>
    <edge id="C0D0.101.00" from="C0D0.101.00" to="D0" priority="-1" shape="504.20,6.40 603.20,6.40">
        <lane id="C0D0.101.00_0" index="0" speed="13.89" length="100.60" shape="508.20,-1.60 592.80,-1.60"/>
        <lane id="C0D0.101.00_1" index="1" speed="13.89" length="100.60" shape="508.20,1.60 592.80,1.60"/>
        <lane id="C0D0.101.00_2" index="2" speed="13.89" length="100.60" shape="508.20,4.80 592.80,4.80"/>
    </edge>
    <edge id="C1B1" from="C1" to="C1B1.101.00" priority="-1" shape="403.20,206.40 302.20,206.40">
        <lane id="C1B1_0" index="0" speed="13.89" length="102.60" shape="392.80,208.00 306.20,208.00"/>
    </edge>
    <edge id="C1B1.101.00" from="C1B1.101.00" to="B1" priority="-1" shape="302.20,200.00 203.20,200.00">
        <lane id="C1B1.101.00_0" index="0" speed="13.89" length="100.60" shape="298.20,208.00 213.60,208.00"/>
        <lane id="C1B1.101.00_1" index="1" speed="13.89" length="100.60" shape="298.20,204.80 213.60,204.80"/>
        <lane id="C1B1.101.00_2" index="2" speed="13.89" length="100.60" shape="298.20,201.60 213.60,201.60"/>
    </edge>
    <edge id="C1C0" from="C1" to="C1C0.101.00" priority="-1" shape="400.00,203.20 400.00,102.20">
        <lane id="C1C0_0" index="0" speed="13.89" length="102.60" shape="398.40,192.80 398.40,106.20"/>
    </edge>
    <edge id="C1C0.101.00" from="C1C0.101.00" to="C0" priority="-1" shape="406.40,102.20 406.40,3.20">
        <lane id="C1C0.101.00_0" index="0" speed="13.89" length="100.60" shape="398.40,98.20 398.40,13.60"/>
        <lane id="C1C0.101.00_1" index="1" speed="13.89" length="100.60" shape="401.60,98.20 401.60,13.60"/>
        <lane id="C1C0.101.00_2" index="2" speed="13.89" length="100.60" shape="404.80,98.20 404.80,13.60"/>
    </edge>
    <edge id="C1C2" from="C1" to="C1C2.101.00" priority="-1" shape="406.40,203.20 406.40,304.20">
        <lane id="C1C2_0" index="0" speed="13.89" length="102.60" shape="408.00,213.60 408.00,300.20"/>
    </edge>
    <edge id="C1C2.101.00" from="C1C2.101.00" to="C2" priority="-1" shape="400.00,304.20 400.00,403.20">
        <lane id="C1C2.101.00_0" index="0" speed="13.89" length="100.60" shape="408.00,308.20 408.00,392.80"/>
        <lane id="C1C2.101.00_1" index="1" speed="13.89" length="100.60" shape="404.80,308.20 404.80,392.80"/>
        <lane id="C1C2.101.00_2" index="2" speed="13.89" length="100.60" shape="401.60,308.20 401.60,392.80"/>
    </edge>
    <edge id="C1D1" from="C1" to="C1D1.101.00" priority="-1" shape="403.20,200.00 504.20,200.00">
        <lane id="C1D1_0" index="0" speed="13.89" length="102.60" shape="413.60,198.40 500.20,198.40"/>
    </edge>
    <edge id="C1D1.101.00" from="C1D1.101.00" to="D1" priority="-1" shape="504.20,206.40 603.20,206.40">
        <lane id="C1D1.101.00_0" index="0" speed="13.89" length="100.60" shape="508.20,198.40 592.80,198.40"/>
        <lane id="C1D1.101.00_1" index="1" speed="13.89" length="100.60" shape="508.20,201.60 592.80,201.60"/>
        <lane id="C1D1.101.00_2" index="2" speed="13.89" length="100.60" shape="508.20,204.80 592.80,204.80"/>
    </edge>
    <edge id="C2B2" from="C2" to="C2B2.101.00" priority="-1" shape="403.20,406.40 302.20,406.40">
        <lane id="C2B2_0" index="0" speed="13.89" length="102.60" shape="392.80,408.00 306.20,408.00"/>
    </edge>
    <edge id="C2B2.101.00" from="C2B2.101.00" to="B2" priority="-1" shape="302.20,400.00 203.20,400.00">
        <lane id="C2B2.101.00_0" index="0" speed="13.89" length="100.60" shape="298.20,408.00 213.60,408.00"/>
        <lane id="C2B2.101.00_1" index="1" speed="13.89" length="100.60" shape="298.20,404.80 213.60,404.80"/>
        <lane id="C2B2.101.00_2" index="2" speed="13.89" length="100.60" shape="298.20,401.60 213.60,401.60"/>
    </edge>
    <edge id="C2C1" from="C2" to="C2C1.101.00" priority="-1" shape="400.00,403.20 400.00,302.20">
        <lane id="C2C1_0" index="0" speed="13.89" length="102.60" shape="398.40,392.80 398.40,306.20"/>
    </edge>
    <edge id="C2C1.101.00" from="C2C1.101.00" to="C1" priority="-1" shape="406.40,302.20 406.40,203.20">
        <lane id="C2C1.101.00_0" index="0" speed="13.89" length="100.60" shape="398.40,298.20 398.40,213.60"/>
        <lane id="C2C1.101.00_1" index="1" speed="13.89" length="100.60" shape="401.60,298.20 401.60,213.60"/>
        <lane id="C2C1.101.00_2" index="2" speed="13.89" length="100.60" shape="404.80,298.20 404.80,213.60"/>
    </edge>
    <edge id="C2C3" from="C2" to="C2C3.101.00" priority="-1" shape="406.40,403.20 406.40,504.20">
        <lane id="C2C3_0" index="0" speed="13.89" length="102.60" shape="408.00,413.60 408.00,500.20"/>
    </edge>
    <edge id="C2C3.101.00" from="C2C3.101.00" to="C3" priority="-1" shape="400.00,504.20 400.00,603.20">
        <lane id="C2C3.101.00_0" index="0" speed="13.89" length="100.60" shape="408.00,508.20 408.00,592.80"/>
        <lane id="C2C3.101.00_1" index="1" speed="13.89" length="100.60" shape="404.80,508.20 404.80,592.80"/>
        <lane id="C2C3.101.00_2" index="2" speed="13.89" length="100.60" shape="401.60,508.20 401.60,592.80"/>
    </edge>
    <edge id="C2D2" from="C2" to="C2D2.101.00" priority="-1" shape="403.20,400.00 504.20,400.00">
        <lane id="C2D2_0" index="0" speed="13.89" length="102.60" shape="413.60,398.40 500.20,398.40"/>
    </edge>
    <edge id="C2D2.101.00" from="C2D2.101.00" to="D2" priority="-1" shape="504.20,406.40 603.20,406.40">
        <lane id="C2D2.101.00_0" index="0" speed="13.89" length="100.60" shape="508.20,398.40 592.80,398.40"/>
        <lane id="C2D2.101.00_1" index="1" speed="13.89" length="100.60" shape="508.20,401.60 592.80,401.60"/>
        <lane id="C2D2.101.00_2" index="2" speed="13.89" length="100.60" shape="508.20,404.80 592.80,404.80"/>
    </edge>
    <edge id="C3B3" from="C3" to="C3B3.101.00" priority="-1" shape="403.20,606.40 302.20,606.40">
        <lane id="C3B3_0" index="0" speed="13.89" length="102.60" shape="392.80,608.00 306.20,608.00"/>
    </edge>
    <edge id="C3B3.101.00" from="C3B3.101.00" to="B3" priority="-1" shape="302.20,600.00 203.20,600.00">
        <lane id="C3B3.101.00_0" index="0" speed="13.89" length="100.60" shape="298.20,608.00 213.60,608.00"/>
        <lane id="C3B3.101.00_1" index="1" speed="13.89" length="100.60" shape="298.20,604.80 213.60,604.80"/>
        <lane id="C3B3.101.00_2" index="2" speed="13.89" length="100.60" shape="298.20,601.60 213.60,601.60"/>
    </edge>
    <edge id="C3C2" from="C3" to="C3C2.101.00" priority="-1" shape="400.00,603.20 400.00,502.20">
        <lane id="C3C2_0" index="0" speed="13.89" length="102.60" shape="398.40,592.80 398.40,506.20"/>
    </edge>
    <edge id="C3C2.101.00" from="C3C2.101.00" to="C2" priority="-1" shape="406.40,502.20 406.40,403.20">
        <lane id="C3C2.101.00_0" index="0" speed="13.89" length="100.60" shape="398.40,498.20 398.40,413.60"/>
        <lane id="C3C2.101.00_1" index="1" speed="13.89" length="100.60" shape="401.60,498.20 401.60,413.60"/>
        <lane id="C3C2.101.00_2" index="2" speed="13.89" length="100.60" shape="404.80,498.20 404.80,413.60"/>
    </edge>
    <edge id="C3C4" from="C3" to="C3C4.101.00" priority="-1" shape="406.40,603.20 406.40,704.20">
        <lane id="C3C4_0" index="0" speed="13.89" length="102.60" shape="408.00,613.60 408.00,700.20"/>
    </edge>
    <edge id="C3C4.101.00" from="C3C4.101.00" to="C4" priority="-1" shape="400.00,704.20 400.00,803.20">
        <lane id="C3C4.101.00_0" index="0" speed="13.89" length="100.60" shape="408.00,708.20 408.00,792.80"/>
        <lane id="C3C4.101.00_1" index="1" speed="13.89" length="100.60" shape="404.80,708.20 404.80,792.80"/>
        <lane id="C3C4.101.00_2" index="2" speed="13.89" length="100.60" shape="401.60,708.20 401.60,792.80"/>
    </edge>
    <edge id="C3D3" from="C3" to="C3D3.101.00" priority="-1" shape="403.20,600.00 504.20,600.00">
        <lane id="C3D3_0" index="0" speed="13.89" length="102.60" shape="413.60,598.40 500.20,598.40"/>
    </edge>
    <edge id="C3D3.101.00" from="C3D3.101.00" to="D3" priority="-1" shape="504.20,606.40 603.20,606.40">
        <lane id="C3D3.101.00_0" index="0" speed="13.89" length="100.60" shape="508.20,598.40 592.80,598.40"/>
        <lane id="C3D3.101.00_1" index="1" speed="13.89" length="100.60" shape="508.20,601.60 592.80,601.60"/>
        <lane id="C3D3.101.00_2" index="2" speed="13.89" length="100.60" shape="508.20,604.80 592.80,604.80"/>
    </edge>
    <edge id="C4B4" from="C4" to="C4B4.101.00" priority="-1" shape="403.20,806.40 302.20,806.40">
        <lane id="C4B4_0" index="0" speed="13.89" length="102.60" shape="392.80,808.00 306.20,808.00"/>
    </edge>
    <edge id="C4B4.101.00" from="C4B4.101.00" to="B4" priority="-1" shape="302.20,800.00 203.20,800.00">